Could not cover tuple  3a 
 1a 2b 3b 4a 5a 6a 7b 8b 9a 
 1b 2a 3b 4a 5b 6b 7a 8a 9b 
 1b 2a 3b 4b 5b 6b 7b 8b 9a 
 1Y 2c 
 1Z 2a 
 1Y 2b 
 1Z 2b 
 1Y 2a 
 1Z 2c 
 1a 2c 
 1b 2c 
 1c 2b 
 1d 2c 
 1e 2a 
 1f 2b 
 1g 2c 
 1h 2b 
 1i 2b 
 1j 2c 
 1k 2c 
 1l 2c 
 1m 2a 
 1n 2a 
 1o 2a 
 1p 2a 
 1q 2c 
 1r 2a 
 1s 2c 
 1t 2b 
 1u 2c 
 1v 2b 
 1w 2a 
 1x 2c 
 1y 2a 
 1z 2a 
 1A 2c 
 1B 2c 
 1C 2c 
 1D 2c 
 1E 2c 
 1F 2b 
 1G 2b 
 1H 2a 
 1I 2c 
 1J 2b 
 1K 2b 
 1L 2a 
 1M 2b 
 1N 2b 
 1O 2b 
 1P 2b 
 1Q 2c 
 1R 2b 
 1S 2b 
 1T 2c 
 1U 2b 
 1V 2c 
 1W 2c 
 1X 2c 
Could not cover tuple  4c 5c 10b 
 1a 2b 3a 4b 5b 6a 7a 8a 9a 10b 11a 12b 13c 14c 15b 16b 17b 18b 19b 20a 21a 22b 23b 24a 25a 26b 27a 28b 29a 30a 31a 32c 
 1b 2c 3c 4c 5a 6b 7b 8b 9b 10d 11b 12c 13b 14b 15a 16a 17a 18c 19c 20b 21b 22a 23a 24b 25b 26a 27b 28a 29c 30b 31b 32a 
 1c 2a 3b 4a 5c 6a 7c 8c 9c 10c 11c 12a 13a 14a 15c 16c 17c 18a 19a 20c 21d 22a 23a 24b 25a 26b 27a 28a 29b 30c 31c 32b 
 1c 2c 3b 4a 5c 6b 7c 8b 9b 10a 11d 12d 13a 14a 15b 16a 17c 18b 19b 20c 21c 22b 23b 24a 25b 26a 27b 28b 29c 30a 31a 32a 
 1a 2a 3a 4b 5a 6b 7a 8c 9c 10c 11d 12d 13c 14b 15c 16c 17a 18c 19c 20a 21d 22b 23b 24a 25b 26a 27b 28b 29b 30b 31c 32b 
 1b 2a 3c 4c 5b 6b 7b 8a 9a 10d 11c 12a 13b 14c 15a 16b 17b 18a 19a 20b 21c 22b 23b 24a 25b 26a 27b 28b 29a 30c 31b 32c 
 1b 2b 3b 4a 5b 6a 7c 8a 9a 10a 11d 12b 13a 14b 15a 16b 17a 18c 19c 20c 21a 22a 23a 24b 25a 26b 27a 28a 29a 30b 31b 32c 
 1b 2b 3c 4c 5a 6a 7b 8c 9c 10c 11a 12c 13b 14c 15b 16c 17b 18b 19b 20b 21b 22a 23a 24b 25a 26b 27a 28a 29b 30a 31a 32b 
 1a 2c 3a 4b 5b 6a 7a 8b 9b 10b 11b 12d 13c 14c 15c 16a 17b 18a 19a 20a 21c 22a 23a 24b 25a 26b 27a 28a 29c 30c 31c 32a 
 1b 2b 3a 4b 5c 6b 7b 8a 9a 10b 11b 12c 13b 14a 15c 16b 17c 18c 19b 20b 21b 22b 23b 24a 25b 26a 27a 28b 29a 30c 31c 32c 
 1a 2c 3c 4c 5c 6a 7a 8c 9c 10d 11a 12b 13c 14a 15a 16c 17c 18a 19c 20a 21a 22b 23a 24b 25b 26a 27b 28b 29b 30a 31b 32a 
 1c 2b 3a 4c 5a 6b 7c 8b 9b 10d 11a 12a 13a 14c 15b 16a 17b 18c 19a 20c 21d 22a 23b 24a 25a 26b 27b 28a 29a 30b 31a 32c 
 1a 2b 3b 4a 5a 6b 7b 8b 9b 10a 11c 12b 13b 14b 15b 16b 17a 18a 19a 20a 21a 22a 23a 24a 25b 26b 27b 28b 29c 30c 31a 32b 
 1c 2a 3b 4b 5b 6a 7a 8a 9a 10b 11b 12a 13b 14b 15a 16a 17a 18b 19b 20c 21d 22b 23b 24b 25a 26a 27b 28a 29b 30a 31b 32b 
 1c 2c 3b 4a 5b 6b 7a 8c 9c 10a 11c 12c 13c 14c 15c 16c 17b 18b 19c 20b 21b 22a 23b 24a 25b 26a 27a 28a 29c 30a 31c 32c 
 1c 2c 3c 4c 5c 6b 7b 8c 9a 10d 11d 12d 13a 14c 15c 16b 17b 18b 19a 20b 21a 22b 23a 24b 25a 26b 27a 28b 29a 30c 31c 32c 
 1a 2a 3a 4a 5a 6a 7c 8a 9b 10c 11b 12c 13a 14a 15b 16c 17c 18a 19b 20a 21b 22b 23a 24a 25a 26a 27a 28b 29c 30b 31b 32c 
 1a 2a 3b 4c 5a 6a 7b 8b 9a 10c 11a 12a 13c 14b 15c 16c 17a 18c 19c 20c 21c 22b 23b 24b 25b 26b 27a 28b 29c 30c 31a 32a 
 1b 2b 3a 4b 5c 6a 7c 8a 9c 10b 11c 12d 13a 14b 15a 16b 17a 18b 19c 20b 21d 22a 23a 24a 25b 26b 27b 28a 29a 30b 31b 32a 
 1c 2c 3c 4b 5b 6b 7c 8c 9c 10a 11b 12b 13c 14b 15c 16a 17c 18c 19a 20c 21c 22a 23b 24a 25a 26b 27a 28b 29b 30a 31a 32b 
 1a 2a 3a 4b 5b 6b 7c 8c 9b 10c 11c 12b 13b 14a 15a 16a 17b 18c 19b 20b 21a 22a 23b 24b 25b 26a 27b 28a 29a 30b 31c 32b 
 1b 2c 3c 4a 5a 6a 7a 8a 9b 10a 11a 12a 13a 14b 15b 16b 17b 18a 19c 20a 21d 22b 23b 24b 25a 26a 27b 28a 29c 30b 31c 32c 
 1b 2c 3b 4a 5a 6a 7b 8c 9b 10b 11d 12c 13b 14c 15a 16b 17c 18a 19a 20c 21b 22b 23b 24b 25b 26b 27b 28b 29b 30b 31a 32c 
 1c 2b 3b 4b 5c 6a 7b 8b 9c 10d 11a 12d 13b 14a 15c 16b 17a 18c 19b 20a 21c 22a 23a 24a 25a 26a 27a 28a 29b 30b 31b 32b 
 1b 2c 3a 4c 5b 6b 7b 8c 9a 10a 11d 12a 13c 14c 15b 16c 17a 18a 19b 20a 21b 22a 23a 24a 25a 26a 27b 28a 29a 30c 31b 32a 
 1c 2c 3a 4c 5a 6b 7b 8a 9c 10b 11b 12c 13a 14a 15a 16c 17a 18a 19c 20a 21a 22a 23b 24b 25b 26b 27a 28b 29a 30a 31a 32b 
 1a 2c 3a 4a 5b 6b 7b 8b 9a 10c 11c 12c 13c 14a 15a 16b 17c 18b 19a 20b 21d 22b 23a 24a 25a 26a 27a 28a 29b 30a 31a 32a 
 1b 2a 3c 4a 5a 6a 7a 8b 9a 10d 11d 12b 13c 14a 15b 16a 17c 18b 19b 20b 21d 22a 23b 24b 25b 26b 27a 28b 29c 30c 31b 32b 
 1a 2b 3c 4c 5c 6a 7a 8a 9b 10a 11c 12d 13b 14b 15c 16c 17c 18c 19a 20c 21b 22b 23b 24b 25a 26b 27b 28a 29a 30a 31c 32a 
 1b 2b 3b 4b 5c 6b 7c 8b 9c 10c 11b 12a 13b 14c 15b 16a 17b 18b 19c 20c 21a 22b 23a 24a 25b 26a 27b 28b 29b 30c 31c 32a 
 1c 2a 3b 4c 5b 6b 7a 8a 9b 10b 11a 12b 13a 14c 15c 16a 17c 18a 19c 20b 21b 22a 23a 24a 25a 26a 27b 28b 29b 30c 31a 32a 
 1a 2a 3a 4a 5c 6b 7c 8c 9a 10b 11a 12c 13a 14c 15b 16b 17a 18c 19a 20c 21c 22b 23a 24b 25b 26a 27b 28a 29c 30a 31c 32b 
 1a 2a 3c 4b 5b 6b 7a 8a 9c 10d 11d 12a 13b 14a 15a 16c 17a 18b 19a 20c 21c 22a 23a 24a 25a 26b 27a 28a 29c 30b 31a 32c 
 1a 2b 3b 4a 5c 6b 7a 8c 9a 10c 11b 12d 13c 14b 15a 16a 17b 18a 19b 20b 21c 22a 23b 24b 25a 26b 27b 28b 29a 30b 31b 32c 
 1c 2b 3c 4b 5b 6a 7c 8b 9a 10d 11c 12c 13a 14b 15a 16c 17b 18a 19b 20a 21b 22b 23b 24b 25b 26b 27b 28b 29c 30c 31c 32b 
 1b 2a 3c 4a 5a 6a 7c 8b 9b 10d 11c 12d 13c 14b 15c 16a 17c 18b 19c 20a 21a 22b 23a 24a 25a 26a 27a 28a 29a 30a 31a 32c 
 1a 2c 3c 4c 5c 6a 7c 8a 9b 10c 11b 12b 13c 14c 15c 16b 17a 18b 19b 20c 21d 22b 23b 24a 25b 26a 27a 28b 29c 30b 31b 32b 
 1a 2c 3a 4b 5a 6a 7b 8a 9c 10a 11c 12b 13a 14a 15b 16a 17b 18c 19c 20b 21c 22b 23b 24b 25a 26b 27a 28a 29b 30c 31b 32c 
 1a 2b 3a 4c 5b 6a 7b 8c 9b 10a 11d 12a 13b 14c 15a 16a 17c 18b 19c 20a 21d 22a 23a 24b 25b 26b 27a 28b 29c 30a 31c 32b 
 1c 2a 3b 4c 5a 6a 7c 8b 9a 10b 11d 12d 13b 14a 15b 16c 17b 18a 19a 20b 21a 22a 23b 24a 25b 26a 27a 28a 29b 30b 31b 32a 
 1c 2a 3b 4b 5c 6b 7a 8a 9c 10c 11a 12c 13c 14b 15b 16b 17c 18b 19a 20a 21b 22a 23b 24b 25b 26b 27b 28a 29a 30c 31b 32a 
 1b 2b 3a 4b 5c 6b 7a 8b 9b 10a 11a 12b 13a 14b 15a 16c 17a 18a 19a 20b 21c 22b 23a 24a 25b 26a 27a 28b 29b 30a 31c 32c 
 1b 2b 3a 4a 5b 6a 7a 8c 9c 10d 11b 12a 13a 14a 15c 16b 17b 18a 19b 20c 21a 22a 23b 24b 25b 26a 27b 28a 29c 30a 31a 32a 
 1b 2c 3b 4a 5b 6b 7b 8b 9c 10b 11a 12d 13b 14c 15a 16c 17c 18c 19b 20c 21d 22b 23a 24a 25a 26a 27b 28b 29a 30c 31c 32b 
 1c 2b 3c 4c 5a 6a 7a 8c 9b 10c 11d 12c 13b 14a 15a 16a 17a 18c 19b 20a 21c 22b 23a 24a 25a 26b 27a 28a 29a 30c 31c 32a 
 1a 2c 3b 4b 5c 6a 7c 8b 9b 10b 11d 12a 13c 14a 15c 16b 17b 18c 19c 20b 21b 22a 23a 24b 25a 26b 27b 28a 29a 30a 31a 32b 
 1c 2a 3a 4a 5c 6a 7b 8a 9c 10d 11c 12b 13c 14c 15b 16a 17a 18c 19a 20c 21b 22b 23a 24b 25a 26b 27a 28b 29a 30b 31c 32a 
 1c 2b 3b 4c 5a 6b 7c 8c 9a 10b 11b 12b 13b 14b 15b 16c 17c 18b 19c 20a 21c 22a 23a 24b 25a 26a 27b 28a 29c 30b 31c 32c 
 1b 2c 3c 4b 5b 6b 7c 8a 9a 10a 11a 12d 13b 14a 15c 16a 17a 18a 19a 20a 21d 22a 23b 24b 25b 26b 27b 28b 29b 30b 31a 32c 
 1a 2b 3c 4c 5a 6b 7a 8b 9a 10a 11b 12c 13a 14c 15c 16b 17c 18c 19c 20c 21a 22b 23a 24a 25a 26b 27b 28a 29b 30b 31b 32b 
 1b 2a 3c 4c 5c 6b 7b 8b 9c 10c 11d 12b 13a 14b 15a 16b 17b 18c 19b 20a 21d 22a 23a 24a 25a 26a 27b 28a 29c 30a 31a 32c 
 1c 2c 3a 4a 5c 6b 7a 8c 9b 10b 11c 12a 13b 14b 15b 16c 17a 18c 19b 20b 21a 22a 23b 24b 25b 26a 27a 28b 29b 30c 31a 32c 
 1c 2b 3b 4b 5a 6b 7b 8a 9b 10d 11b 12d 13c 14c 15b 16c 17b 18a 19c 20c 21d 22b 23a 24a 25b 26b 27a 28b 29b 30a 31b 32b 
 1a 2b 3c 4a 5b 6a 7c 8a 9c 10d 11d 12c 13c 14b 15b 16b 17c 18a 19c 20b 21c 22a 23b 24b 25a 26a 27b 28b 29b 30c 31c 32a 
 1b 2c 3b 4b 5a 6a 7a 8a 9a 10c 11c 12a 13a 14c 15a 16a 17c 18c 19a 20a 21a 22a 23b 24a 25a 26a 27a 28b 29c 30a 31b 32a 
 1b 2a 3a 4a 5b 6b 7b 8c 9b 10b 11b 12b 13b 14a 15c 16c 17b 18b 19a 20c 21b 22b 23a 24a 25b 26b 27b 28a 29a 30c 31b 32b 
 1c 2a 3a 4b 5b 6a 7b 8a 9c 10c 11d 12d 13b 14b 15c 16b 17c 18a 19c 20b 21a 22b 23b 24b 25a 26b 27b 28b 29c 30a 31b 32c 
 1c 2c 3a 4c 5a 6a 7a 8b 9c 10a 11c 12d 13c 14a 15a 16b 17b 18b 19b 20c 21b 22b 23a 24b 25b 26a 27a 28b 29a 30b 31a 32b 
 1a 2c 3b 4b 5a 6a 7c 8c 9b 10d 11a 12c 13a 14b 15c 16a 17a 18b 19b 20b 21d 22a 23b 24a 25a 26a 27a 28b 29a 30c 31b 32a 
 1c 2b 3c 4a 5a 6a 7c 8a 9c 10a 11a 12a 13c 14a 15a 16c 17a 18b 19a 20b 21a 22a 23b 24a 25a 26a 27b 28a 29c 30c 31c 32b 
 1b 2a 3b 4c 5a 6b 7b 8c 9c 10b 11c 12a 13a 14c 15c 16a 17c 18b 19b 20a 21c 22b 23b 24a 25b 26b 27b 28b 29b 30b 31c 32a 
 1b 2c 3a 4b 5c 6a 7c 8a 9a 10c 11d 12c 13c 14c 15a 16c 17b 18a 19c 20c 21c 22a 23b 24b 25b 26a 27b 28a 29a 30c 31a 32b 
 1a 2a 3b 4c 5b 6b 7c 8b 9a 10d 11b 12d 13a 14c 15b 16b 17a 18c 19a 20a 21b 22a 23b 24b 25b 26a 27b 28a 29b 30c 31a 32c 
 1c 2b 3c 4b 5b 6a 7a 8c 9a 10a 11b 12c 13b 14a 15b 16b 17b 18c 19c 20b 21d 22b 23a 24b 25b 26a 27a 28b 29a 30b 31a 32a 
 1a 2a 3c 4c 5c 6b 7b 8b 9a 10c 11a 12a 13b 14a 15b 16a 17c 18a 19c 20c 21b 22b 23a 24a 25b 26a 27a 28b 29c 30a 31c 32c 
 1a 2b 3a 4c 5b 6b 7b 8b 9c 10b 11c 12b 13c 14b 15c 16c 17b 18a 19a 20c 21d 22a 23b 24a 25a 26a 27a 28b 29c 30b 31b 32c 
 1b 2c 3c 4a 5b 6b 7b 8a 9b 10a 11a 12c 13c 14b 15b 16a 17b 18b 19b 20c 21a 22a 23a 24b 25b 26b 27a 28a 29b 30b 31b 32a 
 1a 2c 3a 4a 5a 6b 7c 8a 9a 10d 11d 12b 13b 14b 15a 16a 17b 18b 19a 20a 21b 22b 23b 24a 25a 26b 27b 28a 29b 30a 31c 32a 
 1b 2c 3c 4c 5b 6a 7a 8c 9b 10c 11c 12d 13a 14a 15b 16b 17a 18a 19c 20c 21c 22a 23a 24a 25a 26b 27a 28a 29c 30a 31b 32b 
 1c 2b 3a 4a 5c 6b 7a 8b 9c 10b 11d 12a 13a 14c 15c 16a 17a 18a 19c 20a 21b 22b 23b 24b 25a 26b 27a 28b 29a 30b 31b 32b 
 1b 2a 3b 4b 5c 6a 7b 8c 9b 10d 11b 12c 13c 14c 15a 16c 17c 18c 19a 20b 21a 22b 23a 24a 25a 26a 27a 28a 29c 30b 31a 32b 
 1a 2b 3b 4b 5a 6a 7c 8b 9c 10a 11b 12b 13b 14c 15c 16b 17a 18a 19b 20b 21b 22b 23b 24b 25a 26a 27a 28a 29b 30a 31c 32a 
 1b 2a 3a 4a 5c 6b 7c 8c 9a 10d 11a 12d 13a 14a 15a 16c 17c 18c 19c 20c 21b 22a 23b 24a 25b 26b 27a 28b 29b 30a 31b 32a 
 1b 2a 3b 4c 5a 6a 7a 8c 9c 10b 11c 12c 13c 14a 15b 16a 17b 18c 19a 20a 21d 22b 23a 24b 25b 26b 27b 28a 29c 30c 31a 32c 
 1c 2b 3c 4c 5c 6a 7b 8a 9b 10c 11b 12a 13a 14b 15a 16b 17c 18b 19a 20b 21c 22b 23a 24a 25b 26a 27a 28a 29b 30b 31a 32a 
 1c 2c 3a 4a 5a 6a 7a 8a 9a 10c 11a 12b 13b 14c 15c 16a 17c 18a 19b 20b 21c 22b 23a 24a 25b 26b 27a 28a 29a 30b 31c 32b 
 1a 2c 3c 4a 5b 6a 7c 8b 9c 10a 11b 12a 13c 14c 15c 16c 17b 18c 19b 20a 21d 22a 23a 24a 25b 26b 27a 28b 29a 30a 31b 32c 
 1b 2a 3a 4c 5b 6b 7c 8b 9b 10b 11d 12c 13c 14b 15c 16a 17a 18a 19b 20b 21a 22b 23a 24b 25a 26a 27b 28b 29b 30a 31c 32c 
 1a 2b 3b 4c 5b 6b 7a 8b 9b 10c 11a 12d 13a 14a 15a 16c 17b 18b 19c 20b 21a 22b 23a 24a 25a 26b 27a 28b 29c 30c 31a 32b 
 1c 2b 3b 4b 5c 6a 7a 8a 9a 10a 11d 12b 13c 14c 15b 16c 17c 18c 19a 20a 21d 22a 23a 24b 25b 26b 27a 28a 29c 30c 31a 32a 
 1c 2b 3b 4a 5c 6a 7a 8c 9b 10d 11c 12b 13b 14a 15a 16b 17b 18b 19c 20a 21d 22a 23b 24a 25a 26a 27b 28b 29b 30c 31c 32c 
 1a 2b 3b 4a 5a 6b 7b 8a 9b 10b 11d 12c 13a 14a 15c 16c 17b 18b 19a 20c 21c 22b 23b 24b 25a 26b 27a 28b 29a 30a 31b 32a 
 1b 2c 3c 4c 5c 6b 7b 8c 9a 10a 11b 12c 13a 14b 15a 16a 17c 18a 19a 20b 21d 22a 23b 24a 25b 26a 27b 28a 29a 30c 31c 32b 
 1a 2c 3a 4c 5b 6b 7c 8a 9b 10d 11c 12a 13c 14c 15b 16c 17c 18b 19b 20a 21c 22a 23b 24b 25a 26a 27b 28b 29a 30b 31a 32b 
 1c 2a 3c 4a 5a 6a 7a 8a 9c 10d 11a 12d 13b 14b 15b 16b 17c 18c 19b 20c 21a 22a 23b 24b 25a 26a 27a 28a 29c 30c 31c 32c 
 1c 2b 3c 4a 5a 6b 7b 8c 9c 10a 11c 12d 13b 14c 15a 16a 17a 18a 19a 20c 21a 22b 23b 24a 25a 26a 27a 28b 29a 30c 31b 32a 
 1a 2c 3a 4b 5b 6b 7b 8c 9c 10c 11a 12a 13a 14b 15a 16a 17a 18b 19a 20c 21b 22b 23b 24a 25b 26b 27a 28a 29b 30b 31a 32c 
 1b 2a 3c 4c 5c 6b 7b 8b 9a 10c 11c 12b 13a 14c 15b 16c 17a 18b 19c 20b 21d 22a 23b 24b 25a 26b 27b 28b 29a 30b 31c 32a 
 1b 2b 3a 4a 5c 6a 7c 8b 9a 10a 11c 12c 13b 14c 15c 16b 17a 18b 19b 20a 21c 22a 23b 24b 25b 26a 27a 28a 29b 30a 31b 32c 
 1a 2a 3a 4b 5a 6b 7a 8b 9b 10b 11d 12a 13b 14a 15a 16b 17c 18a 19b 20c 21d 22a 23a 24b 25a 26b 27a 28a 29a 30c 31b 32a 
 1a 2a 3c 4b 5b 6b 7b 8c 9b 10d 11b 12b 13a 14a 15a 16a 17a 18a 19c 20a 21c 22a 23a 24a 25b 26a 27a 28b 29b 30b 31a 32a 
 1b 2b 3b 4c 5b 6b 7c 8c 9c 10a 11a 12a 13c 14b 15a 16b 17c 18c 19b 20b 21c 22b 23b 24b 25b 26b 27a 28a 29a 30a 31b 32c 
 1b 2c 3b 4a 5b 6a 7a 8b 9c 10c 11b 12d 13b 14a 15c 16c 17b 18b 19a 20a 21a 22b 23b 24a 25b 26a 27b 28b 29b 30b 31c 32b 
 1a 2b 3c 4c 5c 6b 7b 8a 9c 10a 11d 12d 13b 14a 15c 16a 17b 18c 19b 20b 21b 22b 23b 24b 25b 26b 27a 28a 29c 30b 31a 32b 
 1c 2a 3a 4a 5c 6a 7b 8b 9c 10b 11a 12c 13c 14a 15a 16b 17b 18b 19c 20c 21c 22a 23a 24a 25b 26a 27b 28a 29a 30b 31a 32c 
 1a 2c 3b 4c 5a 6a 7a 8a 9c 10c 11d 12a 13c 14b 15b 16b 17a 18c 19a 20c 21a 22b 23a 24b 25a 26b 27b 28b 29a 30a 31c 32c 
 1c 2b 3c 4c 5a 6b 7c 8b 9a 10c 11c 12b 13c 14b 15c 16b 17c 18c 19a 20c 21b 22b 23a 24b 25a 26b 27a 28b 29b 30c 31b 32c 
 1b 2c 3a 4b 5a 6a 7c 8c 9a 10b 11d 12d 13a 14b 15b 16c 17a 18b 19a 20c 21a 22b 23b 24b 25a 26b 27b 28b 29c 30c 31a 32b 
 1b 2c 3b 4b 5a 6a 7a 8b 9a 10d 11b 12c 13c 14a 15b 16b 17a 18b 19a 20c 21c 22b 23a 24a 25b 26a 27a 28a 29a 30a 31c 32c 
 1a 2b 3b 4b 5a 6a 7c 8a 9a 10b 11a 12a 13c 14b 15c 16a 17c 18c 19b 20b 21d 22a 23a 24a 25b 26b 27b 28a 29c 30b 31b 32a 
 1b 2c 3b 4c 5b 6b 7a 8c 9b 10b 11d 12b 13a 14c 15a 16b 17b 18c 19a 20b 21b 22a 23b 24b 25a 26b 27b 28a 29c 30b 31b 32c 
 1a 2c 3a 4b 5c 6a 7a 8c 9b 10a 11a 12c 13b 14c 15c 16a 17b 18a 19c 20a 21a 22b 23b 24a 25b 26b 27b 28a 29b 30c 31b 32a 
 1c 2a 3a 4a 5a 6a 7a 8a 9a 10d 11b 12a 13b 14b 15c 16c 17a 18c 19c 20b 21b 22a 23b 24b 25a 26b 27a 28a 29b 30c 31c 32a 
 1b 2a 3a 4b 5b 6a 7a 8a 9a 10d 11c 12c 13a 14c 15c 16c 17b 18a 19b 20c 21d 22a 23b 24b 25a 26b 27a 28b 29a 30b 31a 32a 
 1c 2c 3b 4a 5c 6b 7c 8b 9a 10c 11a 12b 13a 14b 15c 16a 17a 18c 19c 20c 21d 22a 23a 24a 25b 26b 27a 28a 29c 30a 31b 32b 
 1c 2b 3a 4c 5b 6a 7c 8b 9b 10c 11b 12d 13b 14c 15a 16c 17c 18c 19b 20a 21d 22b 23a 24a 25b 26a 27b 28b 29b 30b 31c 32c 
 1b 2b 3c 4b 5b 6a 7c 8c 9a 10a 11c 12a 13a 14c 15b 16c 17c 18b 19c 20c 21b 22b 23b 24b 25a 26b 27b 28b 29b 30b 31a 32b 
 1c 2a 3b 4a 5c 6b 7a 8a 9c 10c 11d 12b 13a 14a 15c 16c 17b 18b 19b 20a 21a 22a 23a 24a 25b 26b 27b 28a 29b 30c 31a 32c 
 1c 2c 3c 4c 5a 6b 7a 8a 9b 10a 11b 12d 13a 14a 15b 16c 17b 18b 19a 20b 21c 22b 23a 24b 25a 26b 27a 28b 29c 30b 31b 32a 
 1a 2b 3b 4b 5a 6a 7b 8a 9a 10b 11c 12d 13c 14b 15b 16c 17c 18a 19a 20b 21b 22b 23a 24b 25a 26a 27a 28b 29b 30a 31a 32c 
 1a 2c 3b 4a 5c 6b 7c 8c 9c 10d 11d 12c 13a 14b 15b 16c 17a 18c 19a 20b 21d 22b 23a 24a 25a 26a 27b 28a 29c 30a 31a 32b 
 1c 2a 3c 4b 5b 6a 7b 8b 9a 10d 11a 12b 13b 14c 15c 16b 17c 18b 19c 20a 21c 22b 23a 24b 25b 26b 27a 28b 29a 30c 31b 32a 
 1a 2a 3b 4a 5c 6b 7b 8b 9c 10c 11b 12a 13c 14b 15a 16b 17a 18a 19b 20a 21a 22b 23b 24a 25a 26b 27b 28a 29b 30a 31b 32c 
 1c 2b 3c 4c 5a 6a 7a 8c 9b 10a 11d 12b 13b 14b 15a 16a 17b 18a 19c 20c 21d 22b 23a 24b 25b 26a 27b 28a 29b 30c 31a 32c 
 1a 2a 3c 4c 5c 6b 7b 8c 9b 10c 11c 12c 13b 14c 15c 16a 17c 18b 19a 20b 21a 22b 23b 24b 25a 26a 27b 28a 29c 30b 31c 32b 
 1c 2a 3b 4b 5c 6b 7b 8b 9b 10d 11d 12a 13b 14c 15c 16a 17a 18c 19a 20a 21a 22a 23b 24b 25b 26a 27b 28a 29b 30b 31b 32c 
 1c 2b 3c 4a 5b 6b 7c 8c 9b 10a 11a 12d 13c 14a 15b 16c 17a 18c 19c 20a 21b 22a 23a 24b 25a 26a 27b 28b 29a 30b 31c 32a 
 1c 2c 3b 4a 5c 6b 7a 8b 9a 10b 11c 12a 13c 14b 15c 16b 17b 18a 19a 20b 21c 22a 23a 24b 25a 26a 27a 28b 29b 30c 31b 32b 
 1c 2b 3b 4c 5a 6b 7b 8b 9a 10a 11c 12b 13b 14b 15b 16a 17c 18b 19b 20b 21d 22a 23a 24a 25b 26a 27b 28b 29a 30a 31b 32c 
 1a 2a 3a 4a 5c 6b 7a 8b 9a 10c 11d 12d 13b 14b 15a 16a 17c 18a 19c 20b 21b 22a 23a 24b 25a 26a 27b 28a 29b 30a 31a 32a 
 1a 2b 3a 4a 5a 6b 7a 8c 9b 10a 11b 12b 13a 14b 15a 16c 17a 18b 19c 20a 21a 22b 23a 24a 25b 26a 27b 28b 29a 30a 31c 32a 
 1c 2c 3b 4c 5b 6a 7c 8b 9c 10b 11c 12a 13c 14a 15a 16a 17c 18a 19a 20a 21a 22b 23a 24a 25a 26b 27a 28b 29c 30a 31a 32a 
 1b 2c 3b 4b 5c 6a 7b 8c 9b 10a 11b 12a 13c 14b 15b 16c 17b 18c 19b 20b 21b 22b 23a 24b 25b 26b 27a 28a 29c 30c 31a 32c 
 1a 2b 3b 4a 5c 6a 7c 8a 9a 10b 11d 12b 13c 14a 15b 16c 17a 18c 19a 20b 21c 22a 23b 24a 25a 26b 27b 28a 29b 30b 31a 32c 
 1c 2b 3c 4c 5b 6b 7a 8b 9b 10a 11d 12c 13c 14a 15a 16c 17b 18c 19a 20c 21d 22a 23b 24a 25a 26b 27b 28b 29b 30b 31b 32c 
 1c 2a 3a 4b 5a 6a 7a 8a 9a 10c 11d 12d 13c 14b 15c 16a 17c 18a 19a 20b 21c 22b 23a 24a 25a 26a 27a 28a 29b 30a 31a 32c 
 1a 2a 3c 4c 5a 6b 7c 8a 9a 10d 11a 12d 13a 14b 15b 16c 17b 18c 19b 20c 21d 22b 23b 24b 25b 26a 27a 28b 29c 30c 31b 32b 
 1c 2a 3c 4b 5b 6b 7c 8a 9a 10d 11c 12a 13c 14c 15b 16b 17a 18b 19a 20b 21a 22a 23b 24b 25a 26b 27a 28b 29a 30b 31c 32c 
 1a 2b 3c 4c 5c 6a 7b 8a 9c 10c 11b 12c 13a 14a 15a 16c 17a 18c 19a 20b 21c 22b 23b 24a 25a 26a 27a 28b 29c 30b 31a 32b 
 1a 2b 3a 4c 5c 6a 7c 8a 9c 10c 11d 12a 13c 14b 15b 16c 17a 18a 19c 20a 21d 22b 23b 24a 25a 26b 27a 28b 29a 30a 31c 32c 
 1b 2c 3b 4c 5c 6a 7c 8c 9b 10b 11a 12d 13a 14b 15b 16b 17c 18a 19b 20c 21d 22b 23a 24a 25b 26b 27b 28a 29c 30a 31a 32c 
 1a 2a 3c 4a 5c 6a 7b 8c 9b 10b 11a 12b 13a 14a 15c 16c 17a 18b 19c 20a 21d 22b 23b 24b 25b 26b 27a 28a 29c 30c 31b 32c 
 1c 2a 3c 4b 5c 6b 7a 8a 9c 10c 11c 12c 13a 14a 15a 16b 17b 18a 19a 20b 21d 22b 23b 24b 25b 26a 27a 28b 29b 30a 31c 32a 
Could not cover tuple  3b 
 1a 2a 3c 4b 5a 6a 7c 8a 9b 10a 11d 12b 13a 14c 15a 16b 17a 18c 19c 20a 21a 22a 23a 24a 25a 26b 27a 28b 29a 30a 31c 32b 
 1b 2a 3a 4c 5a 6a 7b 8c 9b 10a 11d 12a 13b 14a 15a 16a 17a 18a 19c 20a 21a 22b 23a 24b 25b 26a 27b 28a 29a 30a 31a 32c 
 1a 2c 3c 4c 5c 6b 7b 8b 9b 10b 11c 12a 13c 14c 15b 16a 17c 18c 19b 20a 21d 22b 23b 24a 25b 26a 27a 28a 29b 30c 31a 32a 
 1c 2a 3c 4a 5a 6a 7b 8b 9a 10c 11d 12c 13a 14b 15c 16b 17a 18b 19a 20b 21c 22b 23a 24a 25a 26b 27b 28a 29c 30a 31c 32c 
 1c 2a 3c 4b 5b 6b 7b 8b 9a 10c 11a 12c 13a 14b 15b 16b 17a 18a 19a 20a 21b 22b 23b 24b 25b 26b 27b 28a 29b 30a 31b 32a 
 1a 2b 3a 4a 5b 6a 7b 8a 
 1b 2a 3b 4b 5a 6b 7a 8b 
 1a 2a 3b 4b 5a 6a 7b 8a 
 1b 2b 3a 4a 5b 6b 7a 8b 
 1a 2a 3b 4a 5b 6a 7a 8b 
 1b 2b 3a 4b 5a 6b 7b 8a 
 1a 2a 3a 4b 5b 6b 7b 8b 
 1b 2b 3b 4a 5a 6a 7a 8a 
Could not cover tuple  1a 
Could not cover tuple  4d 
Could not cover tuple  4e 
Could not cover tuple  4g 
Could not cover tuple  4r 
Could not cover tuple  8a 
Could not cover tuple  8c 
Could not cover tuple  8e 
Could not cover tuple  8g 
Could not cover tuple  8h 
Could not cover tuple  8m 
Could not cover tuple  8n 
 1b 2e 3C 4c 5a 6e 7d 8k 9c 10a 
 1b 2a 3m 4a 5c 6l 7a 8q 9b 10b 
 1b 2b 3F 4m 5b 6a 7f 8C 9a 10a 
 1b 2c 3V 4f 5a 6g 7b 8z 9d 10b 
 1b 2d 3P 4h 5b 6k 7e 8i 9f 10a 
 1b 2c 3a 4k 5b 6p 7c 8x 9e 10b 
 1b 2d 3b 4b 5a 6q 7a 8v 9g 10a 
 1b 2e 3c 4l 5a 6b 7d 8d 9a 10a 
 1b 2b 3d 4i 5a 6f 7a 8j 9d 10b 
 1b 2b 3e 4j 5a 6m 7c 8r 9g 10b 
 1b 2d 3f 4p 5a 6o 7a 8f 9a 10a 
 1b 2d 3g 4o 5b 6j 7a 8D 9a 10b 
 1b 2b 3h 4q 5a 6c 7b 8u 9d 10b 
 1b 2e 3i 4n 5b 6i 7c 8b 9a 10a 
 1b 2b 3j 4o 5c 6d 7f 8w 9c 10b 
 1b 2d 3k 4p 5b 6h 7d 8p 9f 10a 
 1b 2c 3l 4p 5a 6n 7b 8s 9c 10a 
 1b 2d 3n 4p 5c 6c 7d 8y 9f 10b 
 1b 2c 3o 4q 5b 6g 7a 8A 9a 10b 
 1b 2a 3p 4f 5c 6e 7d 8F 9f 10b 
 1b 2b 3q 4j 5c 6q 7e 8t 9d 10b 
 1b 2a 3r 4h 5a 6b 7c 8B 9c 10a 
 1b 2a 3s 4k 5c 6g 7e 8E 9c 10a 
 1b 2d 3t 4l 5b 6q 7c 8G 9d 10a 
 1b 2d 3u 4l 5a 6e 7b 8l 9b 10b 
 1b 2d 3v 4l 5a 6n 7b 8o 9g 10a 
 1b 2a 3w 4j 5b 6e 7e 8u 9f 10a 
 1b 2d 3x 4p 5c 6p 7b 8C 9c 10a 
 1b 2a 3y 4n 5a 6k 7e 8q 9g 10a 
 1b 2c 3z 4h 5b 6d 7c 8z 9c 10a 
 1b 2d 3A 4f 5a 6p 7d 8q 9b 10b 
 1b 2b 3B 4c 5c 6n 7e 8A 9f 10b 
 1b 2e 3D 4a 5c 6n 7b 8j 9b 10b 
 1b 2d 3E 4o 5a 6q 7e 8o 9f 10b 
 1b 2c 3G 4p 5a 6l 7f 8z 9d 10a 
 1b 2a 3H 4f 5c 6i 7b 8d 9d 10a 
 1b 2c 3I 4l 5c 6d 7c 8j 9b 10b 
 1b 2b 3J 4j 5c 6h 7f 8b 9c 10b 
 1b 2e 3K 4q 5c 6j 7f 8s 9f 10a 
 1b 2a 3L 4m 5c 6b 7a 8s 9b 10a 
 1b 2b 3M 4j 5c 6m 7d 8B 9f 10b 
 1b 2e 3N 4j 5b 6m 7f 8C 9g 10a 
 1b 2d 3O 4n 5a 6c 7c 8E 9f 10a 
 1b 2b 3Q 4n 5c 6k 7a 8z 9g 10a 
 1b 2a 3R 4k 5a 6h 7d 8l 9e 10a 
 1b 2b 3S 4b 5c 6a 7a 8t 9b 10b 
 1b 2b 3T 4f 5b 6i 7b 8u 9c 10a 
 1b 2b 3U 4p 5c 6i 7c 8s 9a 10b 
 1b 2e 3W 4n 5a 6e 7d 8o 9b 10b 
 1a 2e 3a 4n 5a 6d 7c 8x 9g 10a 
 1b 2c 3b 4d 5c 6m 7e 8F 9b 10b 
 1b 2a 3c 4m 5a 6k 7d 8i 9a 10a 
 1b 2d 3e 4q 5a 6f 7b 8f 9a 10b 
 1b 2a 3g 4a 5a 6l 7f 8n 9b 10b 
 1b 2e 3E 4e 5c 6j 7d 8q 9e 10a 
 1b 2b 3H 4i 5a 6e 7a 8z 9b 10a 
 1a 2a 3J 4g 5c 6e 7c 8F 9d 10a 
 1b 2c 3E 4c 5a 6c 7d 8h 9g 10a 
 1b 2b 3H 4h 5a 6f 7b 8n 9c 10b 
 1a 2b 3e 4o 5b 6d 7d 8f 9f 10b 
 1a 2d 3f 4r 5a 6a 7f 8a 9e 10a 
 1a 2d 3g 4o 5b 6h 7b 8f 9a 10a 
 1b 2d 3h 4m 5c 6i 7b 8D 9c 10a 
 1b 2a 3n 4e 5a 6b 7c 8g 9d 10a 
 1a 2e 3o 4a 5b 6c 7a 8i 9g 10b 
 1b 2d 3s 4g 5b 6n 7f 8k 9e 10b 
 1b 2d 3A 4a 5c 6b 7e 8e 9g 10a 
 1b 2c 3E 4r 5c 6c 7c 8n 9f 10a 
 1a 2d 3G 4o 5a 6b 7a 8x 9e 10a 
 1b 2c 3M 4o 5c 6a 7e 8C 9f 10a 
 1a 2c 3N 4o 5b 6d 7e 8i 9c 10a 
 1b 2e 3a 4p 5a 6n 7d 8e 9c 10b 
 1a 2c 3e 4k 5a 6n 7e 8n 9f 10a 
 1a 2e 3f 4l 5b 6j 7c 8q 9c 10a 
 1b 2b 3g 4l 5c 6q 7c 8s 9g 10a 
 1a 2d 3h 4c 5c 6g 7d 8t 9g 10b 
 1b 2c 3j 4l 5c 6h 7e 8h 9b 10a 
 1a 2e 3n 4c 5a 6d 7a 8p 9e 10a 
 1a 2a 3o 4b 5b 6e 7a 8i 9a 10b 
 1a 2a 3a 4j 5b 6n 7f 8b 9g 10a 
 1a 2c 3n 4q 5c 6h 7b 8g 9c 10b 
 1b 2b 3o 4q 5a 6l 7f 8l 9c 10a 
 1a 2b 3n 4i 5a 6e 7e 8n 9b 10a 
 1a 2a 3T 4b 5a 6g 7e 8a 9a 10a 
 1b 2d 3C 4c 5c 6k 7e 8e 9d 10b 
 1a 2c 3T 4e 5a 6b 7e 8f 9d 10a 
 1b 2a 3q 4g 5a 6b 7a 8c 9c 10a 
 1a 2d 3a 4f 5c 6c 7a 8z 9c 10a 
 1b 2b 3F 4c 5b 6b 7c 8k 9f 10b 
 1b 2e 3N 4f 5b 6a 7e 8r 9b 10a 
 1b 2a 3F 4a 5b 6c 7b 8w 9g 10a 
 1a 2b 3e 4k 5a 6j 7b 8a 9b 10a 
 1b 2b 3e 4m 5c 6o 7c 8l 9a 10b 
 1b 2c 3g 4k 5a 6n 7f 8a 9c 10b 
 1b 2c 3h 4k 5a 6f 7e 8a 9a 10a 
 1b 2d 3j 4e 5b 6e 7f 8a 9d 10a 
 1b 2d 3k 4k 5b 6g 7b 8e 9g 10b 
 1a 2e 3l 4k 5a 6q 7a 8q 9c 10b 
 1a 2e 3n 4k 5b 6n 7b 8a 9a 10a 
 1b 2d 3s 4k 5c 6k 7d 8n 9d 10b 
 1b 2a 3y 4k 5c 6b 7a 8a 9g 10b 
 1a 2d 3u 4p 5a 6a 7f 8a 9c 10a 
 1b 2a 3s 4l 5c 6e 7a 8e 9b 10a 
 1b 2d 3U 4m 5a 6g 7d 8n 9d 10b 
 1a 2b 3G 4d 5b 6m 7d 8b 9a 10b 
 1b 2d 3a 4l 5c 6a 7b 8a 9c 10a 
 1a 2a 3d 4h 5b 6p 7e 8x 9b 10b 
 1a 2c 3a 4p 5a 6n 7f 8F 9a 10b 
 1a 2d 3b 4o 5b 6j 7c 8v 9b 10a 
 1a 2e 3c 4p 5a 6a 7f 8E 9d 10a 
 1a 2d 3e 4o 5a 6l 7a 8f 9g 10b 
 1a 2d 3f 4c 5b 6p 7a 8G 9g 10b 
 1a 2a 3h 4g 5a 6g 7c 8m 9g 10b 
 1b 2d 3l 4e 5c 6l 7f 8p 9a 10a 
 1b 2e 3y 4d 5c 6c 7c 8o 9g 10a 
 1b 2b 3T 4g 5a 6d 7d 8o 9e 10a 
 1b 2e 3C 4r 5a 6e 7a 8l 9f 10b 
 1a 2e 3m 4l 5b 6h 7e 8s 9g 10a 
 1a 2c 3J 4f 5a 6d 7f 8E 9f 10a 
 1a 2e 3O 4j 5c 6f 7c 8y 9e 10a 
 1b 2e 3D 4k 5a 6i 7b 8n 9d 10a 
 1b 2b 3c 4p 5a 6h 7a 8a 9b 10b 
 1b 2b 3L 4p 5c 6q 7b 8c 9f 10b 
 1b 2e 3P 4q 5a 6i 7b 8e 9b 10a 
 1b 2a 3c 4l 5b 6n 7c 8e 9c 10b 
 1b 2e 3z 4p 5b 6q 7c 8g 9e 10b 
 1b 2d 3p 4i 5c 6e 7c 8h 9f 10a 
 1b 2d 3m 4f 5b 6d 7f 8m 9c 10b 
 1a 2d 3k 4r 5b 6p 7b 8s 9g 10b 
 1a 2c 3L 4k 5a 6p 7f 8m 9a 10a 
 1a 2a 3w 4l 5c 6k 7e 8o 9c 10a 
 1a 2b 3d 4f 5a 6d 7g 8a 9g 10d 11f 12c 13b 14h 15a 16h 17a 18h 19a 20g 21a 22a 23g 24h 25d 26h 27b 28g 29f 30c 31a 32f 33c 34h 35d 36a 37b 38b 39h 40e 41a 42d 43e 44c 45b 46h 47h 48g 49c 50c 51f 52g 53c 54c 55h 56c 57g 58d 59g 60e 61d 62c 63h 64d 65g 66d 67h 68b 69g 70d 71b 72b 73a 74b 75c 76f 77b 78b 79c 80e 81c 
 1b 2g 3e 4h 5f 6e 7e 8d 9c 10h 11d 12b 13c 14e 15h 16b 17e 18a 19d 20b 21h 22h 23e 24a 25b 26g 27a 28f 29b 30d 31g 32c 33h 34e 35g 36c 37h 38d 39a 40f 41d 42e 43b 44g 45h 46c 47e 48c 49e 50b 51c 52h 53g 54a 55f 56b 57c 58c 59f 60a 61c 62f 63e 64b 65a 66e 67a 68g 69c 70a 71e 72g 73b 74g 75e 76c 77e 78e 79d 80a 81b 
 1c 2a 3c 4b 5e 6h 7d 8e 9h 10c 11h 12f 13f 14a 15d 16f 17h 18e 19f 20e 21d 22c 23h 24f 25g 26e 27f 28e 29e 30e 31f 32a 33a 34f 35a 36h 37f 38e 39g 40h 41c 42g 43c 44e 45c 46b 47f 48b 49f 50d 51a 52d 53f 54h 55g 56h 57d 58g 59a 60f 61a 62d 63g 64g 65c 66a 67g 68c 69h 70f 71d 72d 73d 74a 75h 76g 77f 78h 79f 80g 81f 
 1d 2h 3f 4d 5d 6b 7c 8g 9e 10g 11g 12a 13a 14d 15g 16c 17c 18b 19e 20f 21f 22b 23c 24e 25f 26b 27g 28d 29h 30b 31d 32d 33e 34g 35b 36e 37e 38f 39f 40b 41f 42h 43g 44b 45a 46d 47g 48d 49g 50a 51h 52a 53a 54g 55c 56a 57e 58h 59d 60h 61b 62a 63f 64e 65b 66f 67c 68a 69b 70b 71a 72e 73c 74c 75a 76b 77g 78f 79b 80c 81g 
 1e 2f 3a 4g 5g 6c 7h 8c 9f 10a 11e 12e 13e 14c 15f 16d 17d 18f 19b 20h 21g 22d 23b 24b 25h 26d 27c 28c 29g 30g 31h 32e 33d 34a 35f 36f 37a 38a 39e 40d 41h 42a 43h 44d 45e 46f 47b 48a 49a 50f 51b 52b 53e 54b 55a 56f 57h 58b 59e 60c 61f 62b 63b 64c 65f 66g 67e 68h 69e 70e 71g 72a 73f 74e 75b 76d 77a 78a 79e 80f 81d 
 1f 2c 3h 4c 5b 6g 7b 8b 9a 10e 11c 12d 13g 14f 15c 16e 17f 18g 19c 20a 21c 22f 23d 24d 25e 26c 27h 28b 29a 30f 31c 32h 33f 34b 35c 36b 37c 38h 39b 40a 41g 42f 43d 44a 45f 46a 47d 48h 49h 50h 51e 52e 53b 54e 55d 56e 57b 58f 59h 60g 61h 62e 63a 64h 65e 66h 67d 68e 69f 70c 71h 72c 73g 74d 75g 76e 77d 78g 79g 80b 81a 
 1g 2d 3b 4a 5c 6f 7f 8h 9b 10b 11a 12g 13h 14b 15b 16a 17g 18c 19g 20c 21b 22g 23f 24c 25a 26a 27e 28h 29c 30h 31b 32b 33g 34c 35h 36d 37d 38g 39c 40g 41e 42c 43a 44f 45d 46e 47a 48f 49d 50e 51g 52c 53h 54d 55e 56d 57a 58e 59c 60b 61e 62g 63c 64a 65h 66b 67b 68f 69a 70h 71c 72h 73h 74f 75f 76a 77c 78c 79h 80d 81e 
 1h 2e 3g 4e 5h 6a 7a 8f 9d 10f 11b 12h 13d 14g 15e 16g 17b 18d 19h 20d 21e 22e 23a 24g 25c 26f 27d 28a 29d 30a 31e 32g 33b 34d 35e 36g 37g 38c 39d 40c 41b 42b 43f 44h 45g 46g 47c 48e 49b 50g 51d 52f 53d 54f 55b 56g 57f 58a 59b 60d 61g 62h 63d 64f 65d 66c 67f 68d 69d 70g 71f 72f 73e 74h 75d 76h 77h 78d 79a 80h 81h 
 1a 2g 3f 4b 5b 6d 7e 8c 9d 10a 11h 12d 13h 14b 15d 16g 17d 18e 19h 20f 21g 22d 23b 24e 25c 26c 27a 28d 29h 30c 31a 32g 33h 34g 35f 36e 37h 38b 39d 40f 41e 42f 43a 44h 45b 46d 47h 48f 49c 50b 51a 52e 53d 54g 55h 56a 57b 58d 59e 60h 61b 62g 63h 64b 65d 66h 67b 68b 69f 70g 71h 72g 73h 74e 75h 76d 77e 78b 79b 80h 81h 
 1a 2c 3a 4a 5f 6b 7h 8c 9f 10c 11f 12g 13g 14a 15c 16b 17e 18c 19e 20f 21f 22c 23b 24e 25h 26f 27a 28f 29e 30d 31d 32e 33e 34g 35h 36f 37b 38e 39g 40g 41f 42d 43b 44g 45b 46g 47h 48c 49b 50h 51d 52a 53h 54e 55e 56d 57g 58a 59h 60d 61d 62d 63f 64c 65c 66f 67g 68h 69g 70g 71b 72g 73c 74g 75e 76d 77a 78b 79a 80f 81h 
 1a 2b 3h 4a 5h 6a 7c 8c 9c 10g 11a 12f 13c 14d 15c 16e 17f 18e 19d 20a 21e 22b 23b 24f 25a 26e 27f 28f 29e 30h 31d 32g 33h 34h 35a 36b 37h 38e 39c 40f 41h 42c 43e 44c 45g 46e 47f 48b 49g 50a 51e 52d 53d 54e 55h 56e 57c 58c 59f 60g 61f 62e 63e 64g 65a 66a 67f 68a 69e 70f 71h 72g 73a 74g 75e 76c 77h 78a 79h 80b 81c 
 1a 2h 
 1b 2g 
 1c 2h 
 1a 2g 
 1b 2h 
 1c 2g 
 1b 2a 
 1b 2b 
 1a 2c 
 1c 2d 
 1c 2e 
 1a 2f 
 1b 2f 
 1a 2c 3a 4a 5a 6b 7c 8a 9a 10b 11a 12a 13b 14b 15a 16b 17a 18b 19a 20b 21b 22b 23b 24a 25b 26a 27b 28b 29a 30a 31b 32a 33b 34b 35a 36b 37b 38b 39a 40b 41b 42a 43b 44b 45b 46b 47a 48c 49a 50a 51a 52a 53b 54b 55a 56a 57a 58a 59b 60a 61b 62b 63b 64a 65b 66b 67b 68a 69b 70a 71a 72b 73b 74b 75a 76b 77b 78b 79a 80b 81b 82b 83a 84b 85b 86a 87b 88c 89a 90a 91b 92b 93b 94b 95a 96b 97a 98b 99a 100a 101a 102b 103b 104a 105b 106a 107a 108b 109a 110c 111a 112b 113a 114a 115b 116b 117a 118a 119b 120a 121b 122b 123b 124a 125a 126b 127b 128a 129a 130a 131a 132b 133b 134c 135a 136a 137b 138a 139a 140a 141a 142a 143b 144c 145a 146b 147b 148b 149b 150b 151b 152a 153a 154b 155b 156c 157b 158c 159b 160a 161a 162a 163a 164a 165b 166b 167b 168b 169b 170b 171c 172a 173b 174b 175a 176a 177b 178b 179a 180a 181a 182b 183a 184b 185a 186b 187b 188b 189a 190b 191a 192a 193a 194a 195c 196b 197b 198b 199a 200b 201a 202b 203a 204b 205a 206b 207b 208b 209b 210a 211c 212a 213a 214b 215a 216a 217a 218a 219a 220a 221b 222b 223a 224a 225b 226a 227a 228b 229b 230a 231a 232b 233b 234b 235b 236b 237a 238b 239a 240a 241a 242b 243b 244c 245b 246a 247c 248a 249a 250a 251c 252a 253b 254b 255b 256b 257c 258b 259c 260c 261a 262c 263b 264b 265a 266b 267b 268a 269b 270a 271a 272b 273c 274c 275b 276b 277c 278b 279c 280a 281a 282b 283b 284a 285a 286a 287b 288b 289a 
 1b 2b 3c 4b 5b 6c 7b 8c 9b 10a 11c 12b 13a 14a 15b 16a 17b 18a 19b 20a 21a 22a 23a 24b 25a 26b 27a 28a 29b 30b 31a 32b 33a 34a 35b 36a 37a 38a 39b 40a 41a 42b 43a 44a 45a 46a 47b 48a 49b 50b 51b 52b 53a 54a 55b 56b 57b 58b 59a 60b 61a 62a 63a 64b 65a 66a 67a 68b 69a 70b 71b 72a 73a 74a 75b 76a 77a 78a 79b 80a 81a 82a 83b 84a 85a 86b 87a 88b 89b 90c 91c 92a 93a 94a 95b 96a 97b 98a 99b 100b 101b 102a 103a 104b 105a 106b 107b 108a 109b 110a 111c 112a 113b 114b 115a 116a 117b 118b 119a 120b 121a 122a 123a 124b 125b 126a 127a 128b 129b 130b 131b 132a 133a 134b 135b 136b 137a 138b 139b 140b 141b 142c 143a 144b 145b 146a 147a 148a 149a 150a 151a 152b 153c 154a 155c 156a 157a 158b 159a 160b 161b 162b 163b 164b 165a 166a 167a 168a 169a 170c 171b 172b 173c 174c 175b 176b 177a 178a 179b 180b 181b 182a 183b 184a 185b 186a 187a 188a 189b 190a 191b 192c 193b 194b 195a 196a 197a 198a 199b 200a 201b 202a 203b 204a 205b 206a 207a 208a 209a 210b 211b 212b 213b 214a 215c 216b 217c 218b 219b 220b 221a 222a 223b 224b 225c 226b 227c 228a 229a 230b 231b 232a 233a 234a 235a 236a 237b 238a 239b 240b 241b 242c 243c 244b 245c 246b 247a 248b 249b 250b 251a 252b 253a 254a 255a 256a 257a 258a 259a 260a 261b 262a 263a 264a 265b 266a 267a 268b 269a 270b 271b 272c 273b 274b 275c 276c 277b 278c 279b 280b 281b 282a 283a 284b 285b 286b 287a 288a 289b 
 1c 2a 3b 4c 5c 6c 7a 8b 9a 10a 11b 12b 13a 14b 15b 16a 17a 18b 19a 20a 21b 22b 23b 24b 25a 26a 27b 28a 29a 30a 31a 32b 33c 34b 35a 36a 37a 38b 39b 40b 41b 42b 43b 44b 45b 46a 47b 48b 49a 50b 51a 52b 53a 54a 55b 56b 57a 58b 59a 60a 61b 62b 63b 64a 65a 66b 67a 68a 69b 70a 71a 72a 73a 74b 75a 76b 77a 78b 79b 80a 81b 82a 83b 84a 85b 86a 87b 88a 89c 90b 91a 92a 93a 94b 95b 96b 97b 98b 99b 100a 101a 102a 103b 104a 105a 106b 107b 108b 109a 110b 111b 112c 113b 114b 115b 116b 117a 118a 119a 120b 121b 122a 123a 124a 125b 126b 127a 128a 129b 130b 131a 132b 133a 134a 135b 136a 137b 138b 139b 140b 141b 142b 143c 144a 145b 146a 147a 148b 149a 150b 151b 152c 153b 154c 155a 156b 157c 158a 159a 160b 161b 162a 163b 164a 165b 166b 167b 168b 169a 170a 171a 172c 173a 174a 175a 176a 177b 178a 179a 180a 181b 182b 183a 184a 185a 186a 187a 188b 189a 190a 191c 192b 193c 194c 195b 196a 197a 198a 199b 200b 201a 202b 203b 204b 205b 206b 207a 208a 209a 210a 211a 212c 213c 214c 215b 216c 217b 218c 219a 220b 221b 222b 223a 224b 225a 226a 227b 228c 229a 230c 231a 232c 233b 234b 235a 236a 237b 238a 239b 240b 241a 242a 243a 244a 245a 246c 247b 248b 249a 250b 251b 252a 253b 254b 255b 256b 257b 258a 259b 260b 261c 262b 263a 264a 265a 266a 267a 268b 269a 270a 271a 272a 273a 274a 275a 276a 277a 278a 279a 280a 281a 282b 283a 284b 285b 286a 287a 288a 289b 
 1c 2a 3b 4c 5a 6a 7a 8b 9b 10b 11b 12a 13b 14a 15a 16b 17b 18a 19b 20b 21a 22a 23a 24a 25b 26b 27a 28b 29b 30b 31b 32a 33c 34a 35b 36b 37b 38a 39a 40a 41a 42a 43a 44a 45a 46b 47a 48b 49b 50a 51b 52a 53b 54b 55a 56a 57b 58a 59b 60b 61a 62a 63a 64b 65b 66a 67b 68b 69a 70b 71b 72b 73b 74a 75b 76a 77b 78a 79a 80b 81a 82b 83a 84b 85a 86b 87a 88a 89c 90b 91a 92b 93b 94a 95a 96a 97a 98a 99a 100b 101b 102b 103a 104b 105b 106a 107a 108a 109b 110b 111b 112c 113a 114a 115a 116a 117b 118b 119b 120a 121a 122b 123b 124b 125a 126a 127b 128b 129a 130a 131b 132a 133b 134a 135a 136b 137a 138a 139a 140a 141a 142b 143c 144a 145a 146b 147b 148a 149b 150a 151a 152c 153b 154c 155a 156b 157c 158a 159b 160a 161a 162b 163a 164b 165a 166a 167a 168a 169b 170a 171a 172c 173a 174a 175b 176b 177a 178b 179b 180b 181a 182a 183b 184b 185b 186b 187b 188a 189b 190b 191c 192b 193c 194c 195b 196b 197b 198b 199a 200a 201b 202a 203a 204a 205a 206a 207b 208b 209b 210b 211a 212c 213c 214c 215b 216c 217b 218c 219b 220a 221a 222a 223b 224a 225a 226b 227b 228c 229b 230c 231b 232c 233a 234a 235b 236b 237a 238b 239a 240a 241b 242a 243a 244a 245a 246c 247b 248a 249b 250a 251b 252b 253a 254a 255a 256a 257c 258c 259b 260b 261c 262b 263b 264b 265b 266b 267b 268a 269b 270b 271b 272a 273a 274a 275a 276a 277a 278a 279a 280b 281b 282a 283b 284a 285a 286b 287b 288b 289a 
 1a 2a 3a 4a 5c 6b 7c 8a 9b 10a 11a 12b 13a 14a 15a 16a 17b 18a 19b 20a 21a 22a 23a 24b 25a 26b 27a 28a 29b 30b 31b 32b 33b 34a 35b 36a 37a 38b 39b 40a 41a 42b 43a 44b 45a 46b 47b 48c 49b 50b 51a 52a 53b 54a 55b 56b 57b 58b 59a 60b 61b 62a 63a 64a 65b 66a 67a 68a 69a 70b 71b 72a 73a 74b 75b 76a 77a 78a 79b 80b 81a 82a 83a 84a 85b 86b 87a 88c 89a 90a 91b 92a 93a 94b 95b 96b 97b 98a 99b 100b 101b 102a 103a 104b 105a 106b 107b 108a 109b 110c 111a 112b 113b 114b 115a 116a 117b 118b 119a 120b 121a 122a 123a 124b 125b 126a 127a 128b 129b 130a 131b 132a 133a 134c 135b 136a 137a 138a 139b 140b 141b 142a 143b 144c 145b 146a 147a 148a 149a 150a 151a 152a 153a 154b 155b 156c 157b 158c 159a 160a 161b 162b 163b 164b 165a 166a 167a 168a 169a 170b 171c 172a 173b 174b 175b 176a 177a 178a 179a 180b 181a 182a 183b 184a 185a 186a 187a 188a 189b 190a 191a 192a 193a 194a 195c 196a 197b 198a 199a 200a 201b 202a 203a 204a 205b 206a 207b 208a 209a 210a 211c 212a 213a 214b 215a 216a 217a 218a 219b 220b 221a 222a 223a 224b 225b 226b 227a 228b 229a 230a 231b 232b 233a 234a 235a 236a 237a 238a 239b 240b 241b 242b 243b 244c 245b 246a 247c 248b 249b 250b 251c 252b 253a 254a 255a 256a 257c 258b 259c 260c 261a 262c 263a 264a 265b 266a 267a 268b 269a 270b 271a 272b 273c 274c 275b 276b 277c 278b 279c 280b 281a 282b 283a 284b 285a 286b 287a 288a 289a 
 1b 2a 3c 4b 5c 6a 7b 8c 9a 10b 11c 12a 13b 14b 15b 16b 17a 18b 19a 20b 21b 22b 23b 24a 25b 26a 27b 28b 29a 30a 31a 32a 33a 34b 35a 36b 37b 38a 39a 40b 41b 42a 43b 44a 45b 46a 47a 48a 49a 50a 51b 52b 53a 54b 55a 56a 57a 58a 59b 60a 61a 62b 63b 64b 65a 66b 67b 68b 69b 70a 71a 72b 73b 74a 75a 76b 77b 78b 79a 80a 81b 82b 83b 84b 85a 86a 87b 88b 89b 90c 91c 92b 93b 94a 95a 96a 97a 98b 99a 100a 101a 102b 103b 104a 105b 106a 107a 108b 109a 110a 111c 112a 113a 114a 115b 116b 117a 118a 119b 120a 121b 122b 123b 124a 125a 126b 127b 128a 129a 130b 131a 132b 133b 134b 135a 136b 137b 138b 139a 140a 141a 142c 143a 144b 145a 146b 147b 148b 149b 150b 151b 152b 153c 154a 155c 156a 157a 158b 159b 160b 161a 162a 163a 164a 165b 166b 167b 168b 169b 170c 171b 172b 173c 174c 175a 176b 177b 178b 179b 180a 181b 182b 183a 184b 185b 186b 187b 188b 189a 190b 191b 192c 193b 194b 195a 196b 197a 198b 199b 200b 201a 202b 203b 204b 205a 206b 207a 208b 209b 210b 211b 212b 213b 214a 215c 216b 217c 218b 219a 220a 221b 222b 223b 224a 225c 226a 227c 228a 229b 230b 231a 232a 233b 234b 235b 236b 237b 238b 239a 240a 241a 242c 243c 244b 245c 246b 247a 248a 249a 250a 251a 252a 253b 254b 255b 256b 257a 258a 259a 260a 261b 262a 263b 264b 265a 266b 267b 268a 269b 270a 271b 272c 273b 274b 275c 276c 277b 278c 279b 280a 281b 282a 283b 284a 285b 286b 287b 288b 289b 
 1a 2b 3a 4c 5b 6a 7b 8a 9a 10b 11a 12b 13b 14a 15a 16b 17a 18b 19a 20a 21a 22a 23a 24a 25a 26b 27a 28b 29b 30b 31b 32b 33a 34a 35b 36b 37b 38b 39a 40b 41b 42b 43a 44b 45a 46b 47a 48a 49a 50a 51a 52a 53b 54a 55b 56b 57b 58a 59b 60b 61b 62a 63b 64a 65b 66b 67a 68a 69b 70a 71a 72b 73a 74b 75a 76b 77a 78b 79a 80b 81a 82b 83a 84a 85b 86b 87a 88b 89b 90c 91c 92a 93b 94b 95b 96b 97b 98b 99a 100b 101b 102a 103a 104a 105b 106b 107a 108b 109b 110a 111a 112a 113b 114a 115a 116a 117a 118b 119a 120a 121b 122b 123a 124b 125a 126a 127a 128a 129b 130a 131b 132b 133a 134b 135b 136a 137a 138a 139b 140a 141b 142c 143a 144c 145a 146b 147a 148b 149a 150a 151a 152b 153b 154a 155c 156a 157a 158b 159b 160a 161b 162a 163b 164a 165a 166a 167b 168a 169b 170b 171a 172b 173c 174a 175b 176a 177b 178a 179a 180a 181a 182b 183a 184a 185a 186b 187b 188b 189b 190a 191b 192c 193b 194b 195a 196b 197b 198a 199a 200b 201b 202b 203a 204a 205a 206b 207b 208b 209b 210a 211b 212b 213b 214c 215c 216b 217c 218b 219a 220a 221b 222a 223a 224b 225c 226a 227b 228a 229a 230b 231a 232b 233b 234b 235a 236b 237a 238b 239a 240a 241a 242b 243c 244b 245a 246b 247a 248b 249a 250b 251a 252b 253b 254a 255a 256b 257c 258c 259a 260a 261b 262a 263b 264a 265b 266b 267b 268b 269b 270a 271a 272c 273a 274b 275c 276a 277b 278b 279c 280b 281a 282b 283a 284b 285a 286a 287b 288a 289a 
 1b 2c 3c 4a 5b 6c 7c 8c 9b 10a 11c 12a 13a 14b 15b 16a 17b 18a 19b 20b 21b 22b 23b 24b 25b 26a 27b 28a 29a 30a 31a 32a 33c 34b 35a 36a 37b 38a 39b 40a 41a 42a 43b 44a 45b 46a 47b 48c 49b 50b 51b 52b 53a 54b 55a 56a 57a 58b 59a 60a 61a 62b 63a 64b 65a 66a 67b 68b 69a 70b 71b 72a 73b 74a 75b 76a 77b 78a 79b 80a 81b 82a 83b 84b 85a 86a 87b 88c 89c 90a 91b 92b 93a 94a 95a 96a 97a 98a 99b 100a 101a 102b 103b 104b 105a 106a 107b 108a 109a 110c 111b 112b 113a 114b 115b 116b 117b 118a 119b 120b 121a 122a 123b 124a 125b 126b 127b 128b 129a 130b 131a 132a 133b 134c 135a 136b 137b 138b 139a 140b 141a 142b 143b 144b 145b 146a 147b 148a 149b 150b 151b 152a 153c 154b 155b 156c 157b 158c 159a 160b 161a 162b 163a 164b 165b 166b 167a 168b 169a 170a 171c 172a 173b 174b 175a 176b 177a 178b 179b 180b 181b 182a 183b 184b 185b 186a 187a 188a 189a 190b 191a 192a 193a 194a 195c 196a 197a 198b 199b 200a 201a 202a 203b 204b 205b 206a 207a 208a 209a 210b 211c 212a 213a 214b 215a 216a 217a 218c 219b 220b 221a 222b 223b 224a 225b 226b 227c 228b 229b 230a 231b 232a 233a 234a 235b 236a 237b 238a 239b 240b 241b 242a 243b 244c 245b 246a 247c 248a 249b 250a 251c 252a 253a 254b 255b 256a 257b 258a 259c 260c 261a 262b 263a 264b 265a 266a 267a 268a 269a 270b 271b 272b 273b 274c 275b 276b 277c 278c 279a 280a 281b 282a 283b 284a 285b 286a 287a 288b 289b 
 1b 2c 3c 4b 5a 6b 7a 8c 9a 10b 11c 12b 13a 14b 15a 16b 17a 18a 19b 20a 21a 22a 23a 24a 25b 26a 27b 28a 29a 30b 31b 32b 33b 34a 35a 36b 37a 38b 39a 40a 41a 42a 43b 44b 45a 46a 47a 48b 49a 50b 51a 52a 53a 54a 55a 56b 57b 58b 59b 60a 61b 62a 63b 64a 65b 66b 67a 68a 69a 70a 71a 72b 73a 74b 75a 76a 77b 78b 79b 80b 81b 82a 83a 84b 85a 86b 87b 88a 89a 90b 91b 92b 93b 94b 95b 96b 97a 98a 99a 100b 101a 102b 103a 104a 105a 106a 107b 108b 109b 110b 111c 112c 113a 114a 115b 116b 117b 118b 119b 120b 121b 122b 123a 124b 125a 126b 127b 128b 129a 130a 131b 132a 133a 134a 135b 136b 137a 138a 139b 140a 141a 142a 143c 144b 145b 146a 147b 148b 149b 150b 151b 152a 153a 154c 155a 156a 157c 158b 159b 160b 161b 162b 163b 164a 165b 166b 167b 168b 169a 170c 171b 172c 173c 174c 175b 176b 177a 178a 179a 180b 181a 182a 183a 184a 185b 186a 187a 188b 189a 190a 191c 192b 193c 194c 195a 196a 197b 198b 199b 200b 201a 202b 203a 204a 205a 206a 207b 208b 209b 210b 211b 212c 213c 214a 215a 216c 217a 218a 219b 220b 221a 222b 223a 224b 225c 226b 227a 228c 229b 230a 231a 232a 233a 234a 235a 236b 237a 238a 239b 240b 241a 242c 243b 244a 245c 246c 247c 248a 249b 250a 251a 252b 253a 254a 255a 256b 257b 258a 259c 260b 261b 262c 263a 264a 265b 266b 267a 268a 269b 270b 271a 272a 273c 274a 275c 276c 277b 278c 279b 280b 281b 282b 283b 284b 285b 286a 287b 288a 289a 
 1a 2b 3a 4b 5a 6b 7c 8a 9b 10a 11a 12a 13b 14a 15b 16a 17b 18b 19a 20b 21b 22b 23b 24b 25a 26b 27a 28b 29b 30a 31a 32a 33b 34b 35b 36a 37a 38a 39b 40b 41a 42b 43a 44a 45b 46b 47b 48a 49b 50a 51b 52b 53b 54b 55b 56a 57a 58a 59a 60b 61a 62b 63a 64b 65a 66a 67b 68b 69b 70b 71b 72a 73b 74a 75b 76b 77a 78a 79a 80a 81a 82b 83b 84a 85b 86a 87a 88b 89a 90a 91a 92a 93a 94a 95a 96a 97b 98b 99b 100a 101b 102a 103b 104b 105b 106b 107a 108a 109a 110c 111c 112b 113b 114b 115a 116a 117a 118a 119a 120a 121a 122a 123b 124a 125b 126a 127a 128a 129b 130b 131a 132b 133b 134b 135a 136a 137b 138b 139a 140b 141b 142a 143a 144c 145a 146b 147a 148a 149a 150a 151a 152c 153a 154a 155b 156b 157a 158a 159a 160a 161a 162a 163a 164b 165a 166a 167a 168a 169b 170b 171b 172a 173a 174c 175a 176a 177b 178b 179b 180a 181b 182b 183b 184b 185a 186b 187b 188a 189b 190b 191b 192a 193b 194a 195b 196b 197a 198a 199a 200a 201a 202a 203b 204b 205b 206b 207a 208a 209a 210a 211a 212a 213a 214a 215b 216b 217b 218a 219a 220a 221b 222a 223b 224a 225a 226a 227a 228b 229a 230c 231b 232b 233b 234b 235b 236a 237b 238b 239a 240a 241b 242b 243a 244b 245c 246b 247b 248b 249a 250b 251b 252a 253b 254b 255b 256a 257c 258c 259b 260a 261c 262c 263b 264b 265a 266a 267b 268b 269a 270a 271b 272b 273c 274b 275a 276c 277a 278b 279c 280a 281a 282a 283a 284a 285a 286b 287a 288b 289b 
 1a 2c 3b 4a 5b 6a 7b 8b 9b 10b 11b 12b 13a 14b 15a 16a 17a 18a 19b 20b 21a 22b 23a 24b 25b 26b 27b 28a 29a 30b 31b 32a 33a 34a 35b 36a 37a 38a 39b 40b 41b 42a 43a 44b 45b 46b 47b 48c 49b 50a 51a 52a 53b 54a 55b 56b 57a 58b 59b 60a 61b 62a 63a 64a 65a 66b 67a 68b 69a 70a 71a 72b 73b 74b 75a 76a 77a 78a 79a 80b 81b 82b 83b 84b 85b 86b 87a 88c 89b 90c 91a 92a 93a 94b 95a 96b 97a 98b 99b 100b 101b 102a 103a 104b 105b 106b 107b 108b 109a 110a 111a 112a 113b 114b 115a 116a 117a 118a 119b 120b 121a 122a 123a 124a 125a 126a 127a 128a 129a 130b 131a 132a 133a 134c 135a 136a 137b 138b 139b 140b 141b 142c 143b 144a 145a 146a 147a 148a 149a 150b 151b 152c 153c 154b 155c 156b 157b 158a 159b 160a 161a 162a 163a 164a 165b 166b 167a 168b 169b 170c 171c 172b 173a 174b 175b 176b 177b 178a 179b 180b 181a 182a 183a 184a 185a 186a 187a 188b 189b 190b 191a 192c 193a 194b 195b 196b 197b 198b 199a 200a 201b 202a 203a 204b 205a 206a 207b 208a 209b 210a 211a 212b 213b 214b 215b 216a 217b 218b 219b 220a 221a 222a 223b 224a 225a 226a 227c 228a 229b 230c 231a 232c 233a 234b 235a 236b 237b 238a 239a 240b 241b 242c 243a 244c 245b 246a 247b 248b 249b 250a 251b 252a 253b 254b 255a 256b 257a 258a 259b 260c 261c 262a 263b 264b 265b 266b 267a 268b 269b 270a 271b 272c 273b 274c 275a 276b 277a 278a 279b 280a 281a 282b 283b 284a 285a 286b 287b 288a 289b 
 1b 2b 3a 4a 5b 6c 7a 8a 9a 10a 11a 12a 13b 14a 15b 16b 17b 18b 19a 20a 21b 22a 23b 24a 25a 26a 27a 28b 29b 30a 31a 32b 33a 34b 35a 36b 37a 38b 39a 40a 41b 42b 43b 44a 45a 46a 47a 48b 49a 50b 51b 52b 53a 54b 55a 56a 57b 58a 59a 60b 61a 62b 63b 64a 65b 66a 67b 68a 69b 70b 71b 72a 73a 74a 75b 76b 77b 78b 79b 80a 81a 82a 83a 84a 85a 86a 87b 88a 89b 90b 91c 92b 93b 94a 95b 96a 97b 98a 99a 100a 101a 102b 103b 104a 105a 106a 107a 108a 109b 110b 111a 112c 113a 114a 115b 116b 117b 118b 119a 120a 121b 122b 123b 124b 125b 126b 127b 128b 129b 130a 131b 132a 133b 134a 135b 136b 137a 138a 139a 140a 141a 142c 143c 144c 145b 146b 147b 148b 149b 150a 151a 152b 153c 154c 155a 156c 157c 158c 159a 160b 161b 162b 163b 164b 165b 166a 167b 168a 169a 170b 171c 172c 173b 174b 175a 176b 177a 178b 179a 180a 181b 182b 183b 184b 185b 186b 187b 188a 189a 190a 191c 192b 193c 194c 195c 196a 197a 198a 199b 200b 201b 202b 203b 204a 205b 206b 207b 208b 209a 210b 211c 212c 213c 214b 215c 216c 217c 218b 219a 220b 221b 222b 223a 224b 225b 226b 227c 228c 229a 230b 231b 232b 233b 234a 235b 236b 237a 238b 239b 240a 241a 242b 243c 244a 245b 246c 247a 248a 249a 250b 251c 252b 253a 254a 255b 256a 257c 258b 259a 260b 261a 262a 263a 264a 265a 266a 267b 268b 269a 270b 271a 272a 273b 274a 275b 276b 277c 278b 279c 280b 281b 282a 283a 284b 285b 286b 287a 288b 289a 
 1c 2b 3b 4b 5a 6a 7b 8b 9b 10a 11b 12b 13a 14b 15a 16b 17a 18a 19a 20b 21a 22a 23a 24a 25a 26a 27b 28a 29a 30a 31a 32a 33c 34a 35a 36b 37b 38a 39a 40a 41b 42b 43a 44b 45b 46a 47b 48a 49b 50a 51b 52a 53b 54a 55a 56a 57a 58b 59a 60b 61b 62a 63a 64b 65a 66b 67a 68a 69a 70b 71b 72b 73a 74a 75a 76a 77a 78b 79a 80a 81a 82b 83b 84a 85b 86b 87a 88b 89c 90c 91b 92b 93a 94b 95b 96a 97b 98a 99b 100a 101a 102b 103a 104b 105b 106b 107a 108a 109b 110a 111b 112a 113b 114b 115a 116a 117a 118b 119b 120a 121b 122b 123b 124b 125a 126b 127b 128b 129a 130b 131a 132b 133b 134b 135b 136a 137b 138a 139b 140b 141b 142b 143a 144a 145a 146b 147a 148b 149a 150a 151b 152a 153a 154a 155c 156c 157a 158c 159a 160b 161b 162b 163a 164b 165a 166b 167b 168a 169a 170a 171b 172b 173b 174a 175a 176a 177a 178a 179b 180a 181a 182b 183a 184b 185b 186b 187b 188a 189a 190a 191b 192c 193b 194b 195c 196a 197a 198b 199a 200b 201b 202b 203a 204a 205a 206b 207a 208b 209b 210b 211c 212b 213b 214a 215a 216b 217a 218c 219b 220b 221a 222a 223a 224b 225b 226a 227a 228a 229b 230a 231a 232c 233a 234b 235a 236a 237a 238a 239b 240a 241b 242a 243b 244b 245c 246b 247c 248a 249a 250a 251c 252a 253a 254a 255b 256a 257b 258a 259c 260a 261a 262b 263a 264b 265a 266a 267a 268a 269a 270a 271a 272c 273c 274b 275b 276c 277c 278a 279a 280a 281b 282b 283a 284a 285a 286b 287b 288b 289a 
 1c 2c 3b 4c 5a 6b 7c 8b 9a 10b 11b 12a 13b 14a 15b 16b 17b 18b 19b 20a 21b 22b 23b 24b 25b 26b 27a 28b 29b 30b 31b 32b 33b 34b 35b 36a 37a 38b 39b 40b 41a 42a 43b 44a 45a 46b 47a 48c 49a 50b 51a 52b 53b 54b 55b 56b 57b 58a 59b 60a 61a 62b 63b 64b 65b 66a 67b 68b 69b 70a 71b 72a 73b 74b 75b 76a 77b 78b 79b 80b 81b 82a 83a 84a 85a 86a 87b 88c 89a 90a 91c 92a 93b 94a 95a 96b 97a 98b 99a 100b 101b 102a 103b 104a 105a 106a 107b 108b 109a 110c 111c 112b 113a 114a 115b 116b 117b 118a 119a 120b 121a 122a 123a 124a 125b 126a 127a 128a 129b 130a 131b 132b 133a 134c 135a 136b 137a 138b 139b 140a 141a 142b 143b 144a 145b 146a 147b 148a 149a 150b 151a 152b 153b 154a 155b 156a 157b 158b 159b 160a 161b 162b 163b 164a 165a 166a 167a 168b 169b 170c 171a 172a 173c 174a 175b 176a 177b 178b 179a 180b 181b 182a 183b 184a 185a 186b 187a 188b 189b 190b 191a 192a 193a 194a 195a 196b 197b 198a 199b 200a 201a 202a 203a 204b 205b 206a 207a 208a 209a 210a 211b 212a 213a 214c 215c 216a 217c 218c 219a 220a 221b 222b 223b 224a 225c 226b 227b 228b 229a 230b 231b 232c 233b 234a 235b 236a 237b 238b 239a 240b 241a 242c 243c 244c 245a 246a 247a 248b 249b 250b 251a 252b 253b 254b 255a 256b 257c 258b 259a 260c 261b 262b 263b 264a 265b 266b 267b 268a 269b 270b 271b 272b 273a 274c 275c 276a 277b 278a 279b 280b 281a 282a 283b 284b 285b 286b 287a 288a 289b 
 1b 2c 3c 4c 5b 6c 7b 8c 9a 10b 11c 12b 13b 14a 15a 16a 17b 18a 19b 20a 21a 22a 23b 24b 25b 26b 27a 28b 29b 30a 31b 32b 33b 34b 35a 36b 37b 38b 39a 40b 41b 42b 43a 44a 45b 46b 47a 48b 49a 50a 51a 52a 53b 54a 55a 56b 57a 58a 59b 60a 61b 62a 63b 64b 65b 66b 67b 68b 69b 70a 71a 72b 73a 74a 75b 76b 77a 78a 79a 80a 81a 82a 83a 84b 85b 86a 87a 88a 89a 90c 91a 92a 93b 94a 95b 96a 97b 98a 99a 100b 101a 102a 103a 104b 105b 106a 107a 108a 109a 110a 111c 112b 113b 114b 115b 116b 117a 118b 119b 120b 121b 122b 123a 124a 125b 126a 127a 128a 129b 130b 131b 132b 133a 134a 135b 136a 137a 138b 139a 140b 141a 142a 143c 144b 145b 146a 147a 148a 149b 150b 151b 152c 153b 154b 155c 156c 157c 158c 159a 160a 161a 162a 163a 164a 165a 166b 167a 168a 169b 170c 171a 172b 173b 174c 175b 176a 177a 178b 179b 180a 181b 182b 183a 184b 185a 186a 187b 188a 189b 190b 191c 192a 193c 194b 195c 196b 197b 198b 199a 200b 201b 202b 203b 204a 205b 206a 207a 208a 209b 210a 211c 212a 213a 214c 215b 216c 217b 218a 219b 220b 221a 222b 223a 224a 225b 226b 227b 228a 229a 230c 231b 232a 233b 234a 235a 236b 237a 238a 239b 240a 241b 242b 243a 244a 245a 246c 247b 248a 249b 250b 251c 252b 253a 254b 255a 256a 257a 258a 259b 260b 261a 262c 263b 264b 265a 266a 267a 268b 269b 270b 271a 272c 273a 274a 275b 276a 277c 278c 279b 280a 281a 282b 283a 284b 285a 286a 287b 288b 289a 
 1a 2c 3a 4a 5b 6c 7a 8c 9b 10a 11c 12b 13a 14b 15b 16a 17a 18a 19a 20a 21b 22b 23a 24a 25a 26a 27b 28a 29a 30b 31a 32a 33c 34a 35b 36a 37a 38a 39b 40a 41b 42a 43b 44b 45a 46a 47a 48a 49b 50b 51b 52a 53a 54b 55b 56a 57b 58b 59b 60b 61a 62b 63a 64a 65a 66a 67a 68a 69a 70b 71a 72a 73b 74b 75a 76b 77b 78a 79b 80b 81b 82b 83b 84b 85a 86b 87b 88b 89c 90b 91c 92b 93a 94b 95b 96a 97b 98b 99b 100b 101b 102a 103b 104a 105a 106b 107b 108b 109b 110b 111b 112a 113b 114a 115b 116a 117b 118a 119a 120a 121a 122a 123b 124b 125a 126b 127b 128b 129a 130a 131a 132a 133a 134b 135a 136a 137b 138a 139a 140a 141b 142a 143a 144c 145a 146b 147b 148b 149b 150a 151a 152b 153a 154b 155a 156b 157b 158c 159b 160b 161a 162a 163b 164b 165b 166a 167b 168b 169a 170a 171c 172c 173a 174b 175a 176b 177a 178a 179a 180b 181a 182a 183b 184a 185a 186a 187a 188b 189a 190a 191a 192b 193b 194c 195b 196a 197a 198a 199b 200a 201b 202a 203b 204b 205a 206b 207a 208b 209b 210b 211b 212c 213c 214b 215c 216b 217c 218a 219a 220a 221b 222a 223b 224b 225a 226a 227a 228c 229a 230b 231b 232a 233a 234b 235b 236b 237a 238b 239a 240b 241a 242a 243c 244b 245b 246b 247a 248b 249a 250a 251a 252a 253b 254a 255b 256b 257c 258c 259a 260a 261b 262c 263a 264a 265b 266b 267b 268b 269a 270b 271b 272a 273c 274b 275c 276b 277b 278c 279a 280b 281b 282a 283b 284a 285a 286a 287a 288a 289b 
 1c 2b 3c 4c 5a 6a 7c 8c 9a 10a 11c 12a 13b 14a 15a 16b 17b 18b 19b 20b 21a 22b 23b 24a 25a 26a 27a 28a 29a 30a 31a 32b 33a 34b 35b 36a 37b 38a 39a 40a 41b 42a 43b 44b 45b 46a 47b 48b 49b 50b 51b 52b 53a 54a 55b 56b 57b 58b 59a 60b 61a 62b 63a 64b 65a 66b 67b 68b 69b 70b 71a 72a 73b 74a 75a 76a 77b 78b 79a 80b 81b 82b 83b 84b 85b 86b 87b 88a 89b 90a 91b 92b 93b 94a 95a 96b 97a 98b 99a 100a 101a 102b 103b 104a 105a 106a 107a 108a 109a 110c 111a 112a 113a 114b 115a 116b 117b 118b 119b 120b 121a 122b 123a 124b 125a 126b 127a 128b 129a 130b 131b 132a 133b 134a 135b 136b 137a 138a 139b 140a 141b 142c 143c 144b 145b 146b 147a 148a 149b 150b 151b 152a 153b 154c 155b 156a 157a 158a 159b 160a 161b 162b 163a 164a 165a 166a 167b 168a 169b 170a 171b 172a 173a 174b 175b 176a 177b 178a 179b 180b 181a 182b 183b 184a 185b 186a 187b 188b 189b 190a 191b 192c 193c 194a 195a 196a 197b 198a 199a 200b 201b 202a 203a 204b 205b 206b 207a 208a 209a 210a 211a 212b 213b 214b 215b 216c 217a 218b 219b 220b 221a 222a 223b 224a 225c 226a 227b 228b 229b 230a 231a 232a 233a 234a 235a 236a 237b 238b 239a 240b 241b 242a 243b 244a 245a 246c 247c 248b 249b 250b 251b 252a 253a 254a 255b 256b 257c 258b 259c 260b 261c 262a 263a 264a 265b 266b 267a 268a 269b 270a 271a 272b 273a 274c 275a 276b 277a 278b 279a 280a 281b 282b 283a 284a 285b 286a 287b 288a 289a 
 1c 2b 3a 4a 5b 6b 7a 8a 9b 10b 11a 12a 13a 14b 15a 16b 17a 18b 19a 20b 21b 22a 23a 24b 25b 26b 27b 28b 29b 30b 31b 32a 33c 34a 35a 36b 37a 38b 39b 40b 41b 42b 43a 44a 45a 46b 47b 48c 49a 50a 51a 52a 53a 54a 55b 56b 57a 58a 59a 60a 61b 62b 63a 64a 65b 66a 67a 68a 69a 70a 71a 72b 73a 74b 75b 76a 77a 78a 79b 80a 81a 82a 83b 84a 85a 86a 87b 88c 89c 90b 91b 92a 93a 94b 95a 96a 97a 98a 99a 100a 101b 102b 103a 104b 105b 106b 107b 108b 109b 110b 111b 112c 113a 114a 115a 116a 117a 118a 119a 120a 121a 122b 123b 124a 125b 126a 127b 128b 129b 130a 131b 132b 133a 134c 135a 136a 137b 138a 139a 140b 141a 142b 143b 144a 145a 146a 147b 148b 149b 150a 151a 152c 153b 154a 155a 156a 157a 158b 159a 160b 161b 162b 163b 164b 165a 166b 167a 168b 169a 170b 171c 172c 173c 174c 175a 176a 177b 178b 179a 180a 181b 182a 183a 184a 185b 186a 187a 188b 189a 190b 191b 192b 193a 194c 195a 196b 197a 198b 199b 200a 201b 202b 203a 204a 205a 206a 207b 208b 209a 210b 211c 212c 213c 214a 215a 216a 217b 218c 219b 220a 221b 222b 223a 224b 225c 226b 227b 228c 229b 230c 231a 232b 233b 234b 235b 236a 237b 238a 239b 240a 241a 242c 243a 244c 245c 246a 247b 248a 249a 250a 251c 252b 253b 254b 255a 256a 257a 258a 259b 260c 261b 262b 263a 264b 265a 266b 267b 268a 269a 270a 271b 272a 273a 274c 275c 276c 277b 278b 279c 280a 281a 282a 283b 284b 285b 286a 287a 288b 289b 
 1b 2a 3c 4b 5a 6b 7b 8b 9b 10b 11b 12a 13a 14a 15a 16b 17a 18b 19b 20a 21b 22a 23a 24a 25a 26a 27b 28a 29b 30a 31a 32b 33b 34b 35a 36b 37a 38b 39a 40a 41b 42a 43b 44b 45b 46a 47b 48c 49b 50b 51a 52b 53a 54b 55a 56a 57a 58a 59a 60a 61b 62a 63b 64b 65a 66b 67b 68b 69b 70b 71a 72b 73a 74b 75b 76a 77a 78a 79b 80b 81b 82a 83a 84b 85a 86b 87a 88b 89a 90b 91a 92a 93b 94b 95b 96b 97b 98b 99b 100a 101a 102b 103b 104a 105b 106b 107b 108b 109b 110c 111a 112c 113b 114a 115b 116b 117b 118b 119b 120b 121b 122a 123a 124a 125b 126a 127b 128a 129a 130b 131a 132a 133a 134c 135a 136a 137a 138b 139a 140b 141b 142a 143a 144b 145b 146a 147a 148b 149b 150b 151b 152b 153c 154c 155c 156b 157c 158b 159b 160b 161b 162a 163a 164a 165a 166b 167a 168b 169a 170b 171a 172a 173c 174a 175a 176a 177b 178a 179b 180b 181b 182a 183b 184b 185b 186a 187b 188a 189b 190a 191c 192c 193a 194a 195b 196a 197b 198a 199a 200a 201b 202a 203b 204b 205a 206a 207b 208b 209b 210b 211a 212b 213b 214c 215a 216b 217c 218a 219a 220b 221a 222b 223a 224a 225b 226b 227c 228c 229b 230a 231a 232c 233b 234a 235a 236b 237a 238a 239b 240a 241b 242a 243b 244c 245b 246a 247c 248b 249a 250b 251b 252b 253a 254a 255b 256b 257c 258c 259a 260a 261c 262c 263b 264a 265a 266a 267a 268b 269a 270b 271a 272c 273b 274a 275b 276a 277a 278c 279c 280b 281a 282a 283a 284a 285b 286b 287a 288a 289b 
 1a 2c 3c 4b 5c 6b 7c 8a 9b 10a 11a 12b 13b 14a 15a 16a 17b 18b 19a 20b 21a 22a 23b 24b 25b 26b 27a 28b 29b 30a 31a 32b 33a 34a 35b 36b 37a 38b 39a 40a 41a 42b 43b 44b 45a 46b 47a 48a 49b 50a 51b 52a 53b 54b 55b 56b 57b 58b 59b 60b 61a 62a 63b 64a 65a 66b 67a 68a 69b 70a 71a 72a 73a 74a 75b 76a 77b 78a 79a 80b 81a 82a 83b 84b 85b 86b 87b 88c 89b 90c 91c 92b 93a 94b 95a 96b 97a 98a 99a 100b 101b 102b 103b 104a 105a 106b 107b 108a 109b 110a 111b 112c 113b 114b 115b 116a 117a 118a 119a 120b 121a 122a 123a 124b 125b 126a 127a 128a 129b 130a 131b 132a 133a 134b 135b 136b 137a 138b 139b 140a 141a 142c 143b 144b 145b 146b 147a 148a 149a 150a 151a 152a 153a 154c 155b 156c 157c 158a 159a 160a 161a 162b 163a 164b 165a 166a 167a 168b 169b 170a 171a 172b 173c 174b 175a 176b 177b 178a 179b 180b 181b 182b 183b 184a 185b 186a 187b 188b 189b 190b 191c 192a 193b 194b 195c 196b 197a 198a 199a 200b 201a 202b 203b 204b 205b 206a 207a 208b 209a 210a 211a 212c 213c 214c 215a 216a 217a 218b 219a 220a 221b 222a 223b 224b 225a 226a 227a 228b 229a 230b 231a 232b 233b 234a 235b 236a 237a 238b 239a 240b 241a 242c 243c 244b 245a 246c 247a 248b 249b 250a 251a 252b 253b 254b 255a 256a 257b 258a 259c 260c 261a 262a 263b 264a 265a 266a 267b 268b 269a 270b 271a 272b 273c 274a 275a 276a 277a 278c 279a 280b 281b 282a 283b 284a 285b 286a 287b 288a 289a 
 1c 2b 3b 4c 5a 6a 7a 8c 9a 10b 11c 12b 13a 14b 15b 16b 17a 18a 19a 20b 21a 22b 23a 24a 25b 26b 27a 28a 29a 30b 31a 32b 33a 34a 35a 36b 37b 38a 39a 40b 41b 42b 43b 44a 45b 46a 47b 48c 49a 50a 51b 52a 53a 54b 55a 56a 57b 58b 59b 60a 61b 62a 63b 64a 65a 66b 67a 68b 69a 70a 71a 72b 73a 74a 75a 76b 77b 78a 79b 80b 81b 82a 83b 84b 85b 86b 87b 88a 89b 90c 91a 92b 93a 94a 95b 96b 97b 98a 99b 100b 101a 102a 103b 104a 105a 106b 107a 108b 109b 110b 111a 112b 113b 114b 115b 116b 117a 118b 119a 120b 121b 122a 123b 124b 125b 126b 127b 128b 129a 130b 131a 132a 133a 134a 135b 136b 137b 138b 139b 140b 141b 142a 143c 144a 145a 146a 147a 148b 149a 150b 151a 152a 153c 154c 155a 156b 157b 158a 159b 160b 161a 162b 163b 164b 165b 166a 167a 168a 169b 170b 171b 172a 173b 174c 175a 176a 177b 178b 179a 180a 181a 182b 183b 184b 185a 186a 187a 188b 189b 190b 191a 192c 193c 194c 195b 196a 197a 198a 199b 200b 201a 202a 203b 204a 205a 206b 207b 208b 209b 210a 211b 212a 213a 214a 215c 216c 217a 218a 219a 220b 221a 222b 223b 224b 225c 226b 227b 228a 229b 230c 231b 232a 233b 234a 235b 236b 237a 238b 239b 240b 241a 242b 243a 244b 245b 246b 247b 248a 249a 250b 251a 252b 253a 254b 255b 256b 257c 258b 259c 260c 261c 262c 263a 264a 265b 266b 267a 268a 269b 270a 271b 272a 273b 274b 275c 276c 277c 278a 279c 280b 281a 282a 283a 284a 285a 286b 287a 288a 289b 
 1a 2a 3b 4b 5a 6c 7b 8b 9b 10b 11a 12b 13b 14b 15a 16b 17b 18b 19a 20a 21b 22b 23a 24b 25a 26b 27a 28a 29b 30a 31b 32a 33c 34a 35b 36a 37a 38b 39b 40a 41b 42a 43b 44b 45b 46b 47a 48b 49b 50b 51a 52b 53b 54a 55a 56a 57b 58b 59b 60a 61b 62a 63a 64b 65b 66b 67a 68a 69a 70b 71a 72a 73a 74b 75a 76a 77a 78a 79b 80b 81a 82a 83a 84b 85b 86b 87a 88c 89c 90a 91c 92a 93b 94b 95a 96a 97b 98a 99a 100a 101b 102b 103b 104a 105b 106a 107a 108a 109b 110b 111c 112b 113a 114a 115a 116a 117b 118a 119a 120a 121b 122b 123b 124a 125b 126a 127b 128a 129a 130a 131b 132b 133b 134a 135b 136a 137b 138a 139b 140a 141b 142c 143b 144c 145a 146a 147b 148b 149a 150b 151b 152c 153b 154a 155b 156a 157b 158b 159b 160b 161b 162a 163b 164a 165a 166a 167a 168a 169b 170c 171b 172c 173b 174a 175a 176a 177a 178b 179a 180b 181a 182a 183b 184b 185b 186a 187a 188b 189a 190a 191c 192b 193a 194c 195c 196b 197b 198b 199a 200a 201a 202a 203a 204a 205a 206a 207b 208a 209a 210a 211b 212c 213b 214b 215c 216a 217b 218b 219a 220a 221b 222b 223b 224a 225a 226a 227a 228b 229b 230a 231a 232b 233a 234a 235a 236a 237b 238a 239b 240b 241a 242a 243b 244a 245b 246b 247c 248a 249a 250a 251b 252a 253a 254a 255b 256a 257a 258a 259b 260b 261b 262b 263a 264a 265b 266a 267b 268b 269b 270b 271b 272c 273a 274b 275a 276b 277c 278b 279b 280a 281b 282a 283a 284a 285b 286a 287b 288a 289b 
 1a 2b 3a 4c 5c 6a 7a 8a 9b 10b 11b 12a 13b 14b 15b 16a 17a 18a 19a 20b 21b 22b 23b 24a 25b 26a 27b 28b 29a 30b 31b 32a 33b 34a 35a 36a 37a 38b 39a 40a 41b 42a 43b 44a 45b 46a 47b 48a 49b 50b 51a 52b 53a 54b 55b 56b 57a 58a 59b 60b 61a 62b 63b 64a 65b 66a 67b 68b 69a 70b 71a 72a 73b 74a 75b 76b 77b 78b 79b 80a 81b 82a 83b 84b 85a 86b 87a 88a 89a 90a 91a 92b 93b 94a 95b 96b 97b 98b 99a 100a 101b 102a 103b 104b 105a 106b 107b 108a 109b 110c 111b 112c 113a 114a 115a 116a 117b 118b 119a 120a 121a 122b 123b 124a 125a 126a 127b 128b 129b 130b 131b 132b 133a 134c 135b 136a 137a 138b 139b 140a 141a 142b 143c 144c 145a 146b 147a 148a 149a 150a 151a 152c 153b 154b 155a 156c 157c 158b 159a 160b 161a 162a 163b 164b 165b 166a 167b 168a 169a 170a 171b 172b 173a 174c 175b 176b 177b 178a 179a 180b 181b 182a 183b 184b 185a 186b 187a 188a 189a 190a 191a 192b 193b 194a 195a 196b 197a 198a 199b 200b 201a 202a 203b 204a 205b 206a 207a 208b 209a 210b 211b 212a 213c 214b 215b 216c 217b 218b 219b 220b 221b 222a 223b 224a 225b 226a 227c 228a 229b 230b 231a 232c 233a 234a 235b 236a 237a 238a 239a 240a 241a 242b 243c 244c 245c 246a 247a 248b 249a 250b 251a 252b 253a 254b 255a 256b 257c 258b 259b 260b 261a 262a 263a 264b 265a 266a 267b 268a 269b 270b 271b 272c 273c 274b 275b 276a 277b 278a 279a 280b 281a 282b 283a 284b 285a 286a 287a 288a 289b 
 1b 2c 3c 4b 5c 6a 7c 8a 9a 10b 11a 12a 13a 14a 15a 16b 17b 18a 19a 20a 21b 22a 23b 24a 25a 26a 27b 28a 29b 30a 31a 32b 33a 34b 35b 36b 37b 38b 39a 40b 41b 42b 43b 44b 45b 46b 47a 48b 49a 50a 51a 52b 53b 54a 55b 56b 57a 58a 59a 60b 61a 62a 63b 64b 65a 66a 67a 68a 69a 70a 71b 72a 73b 74a 75b 76b 77b 78a 79b 80b 81a 82a 83b 84a 85b 86a 87b 88b 89c 90b 91b 92b 93b 94a 95b 96b 97a 98a 99a 100a 101a 102b 103b 104b 105b 106a 107a 108a 109b 110b 111a 112b 113b 114b 115b 116b 117a 118a 119a 120a 121b 122b 123b 124b 125b 126a 127b 128b 129b 130a 131b 132a 133a 134b 135a 136a 137a 138b 139a 140b 141b 142c 143b 144c 145a 146a 147b 148b 149a 150b 151a 152b 153c 154b 155c 156b 157a 158a 159a 160b 161b 162b 163a 164a 165a 166b 167a 168a 169b 170c 171c 172c 173a 174a 175b 176b 177a 178a 179b 180a 181b 182b 183b 184a 185b 186a 187b 188b 189a 190a 191a 192a 193c 194c 195c 196b 197b 198a 199a 200b 201b 202a 203a 204b 205b 206b 207b 208a 209a 210a 211c 212b 213a 214a 215b 216b 217c 218c 219a 220a 221b 222a 223a 224b 225a 226a 227a 228c 229a 230c 231b 232a 233a 234b 235b 236a 237a 238b 239a 240b 241b 242b 243a 244a 245a 246c 247a 248b 249a 250b 251c 252b 253b 254a 255a 256b 257c 258c 259a 260a 261a 262a 263a 264b 265b 266a 267a 268b 269a 270b 271a 272b 273b 274c 275a 276a 277b 278a 279b 280a 281a 282b 283a 284a 285a 286a 287a 288a 289b 
 1c 2c 3a 4a 5a 6b 7a 8c 9b 10a 11b 12b 13a 14a 15b 16a 17b 18b 19a 20a 21a 22a 23b 24b 25b 26a 27a 28b 29b 30a 31b 32b 33c 34a 35b 36a 37b 38b 39b 40a 41a 42b 43b 44a 45b 46a 47b 48c 49b 50a 51b 52b 53b 54a 55a 56b 57a 58a 59b 60a 61a 62a 63a 64b 65a 66b 67b 68b 69b 70a 71b 72b 73b 74b 75a 76a 77b 78b 79a 80b 81a 82a 83a 84b 85b 86b 87b 88a 89a 90a 91b 92a 93b 94a 95a 96b 97a 98b 99b 100a 101b 102b 103b 104b 105a 106b 107b 108a 109a 110a 111c 112a 113b 114a 115a 116b 117a 118b 119b 120b 121a 122a 123a 124b 125a 126b 127a 128b 129a 130a 131a 132b 133a 134b 135b 136a 137a 138a 139b 140b 141b 142a 143a 144c 145b 146b 147a 148b 149b 150a 151b 152b 153a 154a 155c 156c 157b 158c 159b 160b 161a 162a 163b 164b 165b 166a 167a 168b 169b 170c 171a 172a 173b 174b 175a 176a 177a 178b 179b 180a 181a 182b 183b 184b 185b 186a 187b 188a 189a 190b 191b 192b 193a 194b 195c 196b 197a 198b 199b 200b 201b 202b 203a 204a 205a 206b 207b 208b 209a 210a 211c 212c 213a 214c 215c 216c 217c 218b 219a 220b 221b 222a 223b 224b 225c 226b 227c 228b 229b 230b 231a 232b 233b 234a 235b 236a 237b 238b 239a 240a 241a 242c 243c 244a 245c 246c 247b 248a 249b 250b 251b 252a 253b 254b 255b 256a 257c 258b 259c 260a 261c 262a 263b 264b 265b 266a 267b 268b 269a 270b 271b 272a 273a 274a 275c 276b 277a 278c 279a 280a 281b 282a 283b 284b 285b 286b 287b 288b 289a 
 1c 2a 3a 4c 5b 6b 7c 8b 9b 10b 11b 12a 13b 14a 15b 16a 17a 18a 19b 20a 21a 22a 23a 24b 25b 26a 27a 28b 29a 30a 31a 32b 33c 34a 35a 36a 37b 38a 39a 40a 41b 42a 43b 44b 45b 46b 47a 48a 49a 50b 51b 52a 53a 54b 55b 56b 57a 58b 59a 60b 61b 62a 63b 64b 65b 66b 67b 68b 69a 70a 71a 72a 73a 74b 75a 76a 77b 78b 79a 80a 81a 82b 83b 84b 85b 86b 87a 88b 89b 90c 91c 92a 93b 94b 95a 96b 97a 98a 99b 100b 101b 102a 103b 104b 105a 106a 107a 108b 109a 110c 111a 112a 113b 114b 115b 116b 117b 118b 119a 120b 121a 122b 123b 124b 125b 126a 127b 128b 129b 130b 131a 132b 133a 134a 135b 136a 137b 138a 139b 140b 141b 142b 143a 144b 145b 146a 147b 148b 149b 150b 151b 152a 153a 154b 155a 156a 157c 158c 159b 160b 161a 162a 163a 164b 165b 166a 167b 168b 169a 170a 171a 172c 173c 174c 175a 176a 177b 178b 179b 180a 181a 182a 183b 184b 185b 186b 187b 188b 189a 190a 191b 192a 193c 194a 195a 196a 197b 198a 199a 200b 201b 202b 203a 204a 205b 206a 207a 208b 209a 210b 211a 212c 213b 214b 215b 216a 217a 218a 219b 220a 221a 222b 223b 224b 225b 226a 227b 228a 229b 230a 231b 232a 233b 234b 235a 236b 237a 238a 239b 240a 241b 242b 243a 244b 245b 246a 247b 248b 249a 250a 251c 252b 253b 254b 255a 256b 257a 258a 259a 260b 261b 262b 263b 264a 265a 266b 267a 268b 269a 270b 271a 272a 273c 274c 275c 276c 277c 278a 279b 280b 281b 282b 283b 284a 285a 286b 287b 288a 289a 
 1a 2c 3a 4c 5c 6a 7b 8c 9a 10b 11a 12b 13b 14b 15b 16b 17b 18b 19a 20a 21a 22a 23b 24a 25a 26a 27a 28b 29b 30b 31a 32b 33b 34a 35a 36a 37b 38a 39b 40a 41b 42b 43b 44a 45a 46b 47b 48b 49a 50b 51a 52b 53a 54b 55a 56a 57b 58a 59b 60a 61b 62a 63a 64a 65b 66b 67b 68a 69b 70b 71a 72b 73b 74a 75b 76a 77a 78b 79a 80b 81b 82a 83a 84b 85a 86a 87a 88c 89b 90b 91c 92b 93a 94a 95a 96a 97a 98b 99a 100a 101b 102b 103b 104a 105b 106b 107a 108b 109a 110a 111c 112a 113b 114b 115b 116b 117a 118a 119b 120b 121a 122b 123a 124a 125a 126a 127b 128a 129a 130a 131b 132b 133a 134c 135a 136a 137b 138a 139a 140a 141a 142c 143c 144c 145b 146b 147a 148b 149a 150b 151b 152c 153b 154a 155a 156a 157c 158a 159b 160b 161b 162a 163b 164a 165a 166b 167a 168a 169b 170a 171c 172c 173b 174a 175b 176a 177a 178a 179b 180a 181a 182b 183a 184a 185b 186a 187a 188a 189b 190b 191c 192c 193c 194b 195b 196a 197a 198a 199b 200a 201b 202a 203b 204b 205b 206b 207a 208b 209a 210a 211a 212a 213c 214c 215c 216b 217c 218c 219a 220b 221a 222a 223a 224b 225b 226a 227a 228c 229b 230c 231b 232c 233b 234a 235a 236b 237b 238b 239b 240b 241b 242c 243c 244c 245a 246b 247c 248a 249b 250a 251c 252b 253b 254a 255b 256b 257b 258a 259a 260a 261c 262c 263a 264a 265b 266a 267b 268a 269a 270a 271a 272b 273b 274c 275b 276c 277b 278b 279c 280a 281a 282a 283b 284a 285a 286a 287b 288b 289a 
 1b 2b 3b 4a 5a 6a 7a 8a 9b 10a 11c 12a 13a 14a 15b 16b 17a 18a 19b 20b 21a 22a 23b 24b 25a 26a 27a 28a 29a 30a 31b 32a 33a 34b 35a 36a 37a 38b 39b 40a 41a 42a 43a 44a 45a 46a 47a 48b 49a 50a 51b 52b 53b 54a 55a 56b 57b 58a 59b 60a 61b 62b 63a 64b 65b 66b 67a 68a 69b 70a 71a 72b 73b 74a 75a 76a 77a 78a 79b 80a 81b 82a 83a 84a 85a 86b 87a 88c 89a 90b 91a 92b 93a 94b 95b 96b 97b 98a 99a 100a 101b 102a 103b 104b 105a 106b 107b 108b 109b 110c 111b 112b 113b 114a 115a 116b 117b 118a 119b 120a 121b 122a 123a 124a 125a 126a 127a 128b 129a 130b 131b 132b 133b 134a 135a 136a 137b 138b 139a 140b 141b 142c 143a 144a 145a 146a 147b 148a 149a 150a 151a 152a 153c 154b 155b 156c 157a 158a 159b 160a 161b 162a 163a 164b 165b 166a 167b 168b 169b 170b 171b 172b 173a 174a 175a 176a 177b 178b 179a 180b 181a 182b 183b 184a 185b 186b 187b 188a 189b 190a 191a 192b 193b 194c 195b 196b 197a 198a 199b 200a 201a 202a 203b 204a 205b 206a 207b 208b 209a 210a 211c 212b 213c 214c 215a 216b 217c 218a 219b 220b 221a 222b 223b 224b 225c 226a 227c 228a 229b 230b 231b 232b 233a 234a 235a 236a 237b 238b 239a 240b 241a 242c 243a 244a 245a 246a 247c 248a 249a 250b 251a 252b 253b 254a 255a 256b 257c 258c 259b 260c 261b 262b 263a 264a 265b 266a 267b 268a 269b 270b 271a 272b 273c 274a 275b 276a 277c 278c 279b 280a 281a 282b 283b 284a 285a 286b 287b 288a 289b 
 1c 2a 3b 4b 5c 6b 7b 8a 9a 10a 11b 12a 13a 14b 15a 16a 17b 18a 19a 20a 21a 22a 23b 24a 25b 26b 27b 28a 29a 30a 31a 32a 33b 34a 35b 36b 37a 38a 39b 40a 41b 42b 43b 44b 45a 46b 47a 48a 49b 50b 51b 52b 53b 54a 55a 56b 57b 58a 59b 60a 61b 62b 63b 64b 65b 66b 67b 68b 69b 70b 71a 72a 73b 74b 75b 76a 77a 78b 79b 80a 81b 82b 83a 84b 85a 86b 87a 88b 89c 90c 91c 92b 93a 94a 95b 96b 97a 98a 99b 100b 101a 102b 103b 104a 105b 106a 107b 108b 109b 110b 111b 112c 113a 114b 115a 116a 117b 118a 119b 120a 121a 122b 123b 124a 125b 126b 127b 128a 129b 130a 131a 132a 133a 134b 135b 136b 137a 138a 139b 140a 141a 142a 143c 144b 145a 146b 147b 148a 149b 150a 151a 152b 153c 154b 155b 156b 157a 158c 159a 160b 161a 162b 163a 164a 165b 166b 167a 168b 169a 170c 171a 172b 173c 174c 175a 176b 177a 178a 179a 180b 181a 182b 183a 184b 185b 186a 187b 188b 189b 190a 191c 192b 193a 194a 195a 196b 197a 198a 199b 200b 201b 202b 203a 204a 205a 206b 207a 208b 209b 210b 211b 212b 213a 214a 215b 216b 217a 218c 219a 220a 221b 222a 223a 224a 225a 226a 227b 228c 229b 230b 231b 232a 233a 234a 235a 236a 237b 238a 239a 240b 241b 242a 243b 244a 245b 246b 247a 248b 249b 250b 251c 252b 253a 254a 255a 256a 257c 258b 259b 260b 261b 262b 263b 264a 265b 266b 267a 268a 269a 270b 271a 272a 273a 274a 275a 276b 277a 278b 279c 280a 281b 282b 283a 284a 285a 286b 287b 288a 289b 
 1c 2b 3c 4c 5a 6a 7a 8b 9b 10b 11c 12a 13b 14a 15a 16a 17b 18b 19a 20a 21a 22a 23a 24a 25b 26b 27b 28b 29b 30b 31a 32b 33a 34b 35b 36b 37b 38b 39a 40a 41b 42a 43b 44a 45a 46a 47b 48b 49b 50b 51a 52a 53a 54a 55b 56a 57a 58b 59b 60a 61a 62a 63b 64a 65a 66a 67a 68b 69a 70b 71a 72a 73b 74b 75a 76b 77b 78a 79a 80a 81b 82b 83b 84a 85a 86b 87b 88a 89b 90b 91a 92a 93b 94a 95a 96b 97a 98b 99b 100a 101a 102b 103a 104b 105b 106a 107a 108a 109a 110c 111a 112c 113a 114a 115a 116b 117b 118a 119a 120a 121a 122b 123b 124a 125b 126b 127b 128b 129a 130b 131b 132b 133a 134c 135a 136a 137b 138b 139a 140b 141a 142b 143b 144a 145a 146b 147b 148b 149a 150b 151a 152a 153a 154c 155a 156a 157b 158b 159a 160b 161a 162b 163b 164b 165a 166a 167b 168a 169a 170b 171a 172a 173b 174b 175b 176a 177a 178a 179b 180a 181b 182a 183b 184b 185b 186a 187b 188a 189a 190a 191b 192a 193a 194b 195a 196a 197a 198a 199a 200a 201b 202b 203a 204b 205b 206b 207a 208a 209a 210b 211c 212b 213b 214a 215a 216a 217b 218b 219b 220b 221a 222a 223b 224a 225c 226a 227a 228b 229b 230a 231b 232c 233a 234a 235b 236a 237a 238b 239b 240a 241a 242c 243c 244b 245c 246c 247a 248b 249b 250b 251b 252a 253a 254b 255a 256b 257a 258a 259c 260a 261a 262c 263a 264b 265a 266b 267b 268a 269a 270a 271a 272b 273b 274b 275c 276c 277b 278c 279a 280a 281b 282a 283a 284b 285b 286b 287b 288b 289a 
 1c 2a 3a 4c 5c 6b 7c 8b 9a 10b 11a 12a 13b 14a 15b 16b 17b 18b 19a 20b 21b 22b 23a 24b 25a 26a 27b 28b 29a 30b 31a 32a 33c 34b 35a 36b 37b 38b 39a 40a 41a 42a 43a 44b 45a 46b 47b 48c 49a 50b 51a 52b 53a 54b 55b 56a 57b 58b 59b 60a 61a 62a 63b 64b 65b 66b 67a 68a 69a 70b 71b 72a 73b 74a 75b 76a 77a 78a 79b 80a 81b 82b 83a 84b 85a 86b 87b 88c 89a 90a 91b 92a 93b 94b 95a 96a 97b 98b 99a 100b 101b 102a 103a 104a 105a 106a 107b 108b 109b 110a 111a 112c 113b 114a 115b 116a 117b 118a 119a 120a 121a 122a 123b 124a 125b 126b 127b 128a 129a 130a 131a 132b 133b 134a 135b 136b 137b 138a 139b 140b 141b 142b 143b 144a 145a 146b 147b 148b 149b 150b 151b 152b 153b 154c 155c 156a 157a 158a 159b 160b 161a 162b 163b 164a 165a 166b 167b 168b 169b 170b 171c 172a 173b 174c 175b 176a 177a 178a 179a 180a 181a 182b 183b 184b 185b 186a 187b 188b 189b 190b 191a 192b 193b 194a 195b 196a 197b 198b 199a 200a 201a 202b 203b 204b 205a 206a 207a 208b 209a 210b 211b 212c 213c 214b 215a 216c 217b 218a 219b 220a 221b 222b 223a 224b 225a 226b 227a 228c 229a 230c 231b 232b 233b 234a 235b 236b 237a 238a 239a 240a 241a 242b 243b 244c 245c 246c 247b 248a 249b 250a 251b 252b 253b 254b 255a 256b 257b 258a 259a 260b 261a 262a 263b 264a 265a 266a 267b 268a 269b 270a 271a 272c 273c 274c 275b 276c 277c 278a 279c 280a 281b 282b 283b 284a 285a 286b 287b 288b 289a 
 1c 2a 3b 4a 5c 6c 7a 8c 9a 10a 11a 12a 13a 14b 15a 16a 17a 18b 19a 20a 21b 22a 23a 24b 25b 26b 27b 28a 29b 30a 31a 32b 33b 34b 35b 36a 37a 38a 39b 40a 41b 42a 43a 44a 45a 46a 47b 48b 49b 50b 51a 52a 53a 54b 55a 56b 57a 58a 59a 60b 61b 62a 63a 64a 65a 66b 67b 68a 69b 70a 71b 72b 73a 74b 75a 76b 77b 78b 79a 80a 81a 82b 83b 84b 85a 86b 87b 88b 89a 90b 91a 92b 93a 94a 95a 96a 97b 98b 99a 100b 101b 102a 103a 104a 105a 106a 107b 108b 109b 110a 111a 112b 113a 114b 115a 116b 117b 118a 119b 120b 121a 122a 123a 124b 125b 126b 127b 128a 129a 130b 131a 132a 133b 134b 135a 136b 137b 138a 139a 140b 141b 142c 143c 144c 145a 146b 147b 148a 149b 150b 151a 152c 153c 154a 155b 156c 157b 158a 159b 160b 161a 162a 163b 164b 165a 166a 167b 168a 169a 170a 171b 172c 173b 174c 175b 176b 177a 178b 179a 180b 181a 182a 183b 184b 185a 186b 187b 188b 189b 190b 191b 192c 193b 194c 195c 196b 197b 198a 199b 200a 201b 202b 203a 204a 205a 206b 207a 208a 209a 210a 211a 212c 213a 214c 215b 216a 217a 218b 219a 220b 221b 222a 223a 224a 225b 226b 227b 228b 229b 230a 231a 232a 233b 234a 235b 236a 237a 238b 239b 240a 241a 242c 243c 244c 245c 246a 247a 248b 249b 250b 251c 252a 253b 254b 255b 256b 257c 258c 259c 260c 261c 262b 263a 264a 265a 266a 267a 268a 269b 270b 271a 272c 273b 274a 275a 276c 277b 278b 279b 280a 281b 282b 283b 284b 285a 286a 287a 288b 289b 
 1c 2a 3b 4a 5b 6b 7a 8a 9a 10a 11b 12b 13a 14b 15b 16a 17a 18b 19a 20a 21b 22b 23a 24a 25b 26a 27a 28b 29a 30b 31a 32a 33c 34a 35a 36b 37a 38b 39a 40b 41b 42a 43b 44a 45b 46b 47b 48a 49a 50b 51b 52a 53a 54a 55a 56b 57a 58b 59b 60b 61a 62b 63b 64b 65b 66b 67b 68b 69a 70b 71a 72b 73a 74a 75a 76a 77a 78b 79b 80b 81b 82b 83b 84a 85b 86b 87a 88a 89b 90a 91c 92b 93a 94b 95b 96b 97a 98a 99b 100a 101a 102a 103a 104b 105a 106b 107a 108b 109b 110b 111b 112c 113b 114b 115a 116b 117b 118a 119b 120b 121a 122a 123a 124b 125a 126a 127b 128a 129a 130b 131a 132a 133a 134a 135a 136b 137b 138b 139b 140b 141a 142c 143b 144a 145a 146a 147b 148b 149b 150a 151a 152b 153a 154b 155b 156c 157a 158a 159a 160a 161a 162b 163b 164b 165b 166a 167b 168b 169b 170a 171b 172b 173a 174a 175a 176b 177a 178b 179a 180a 181b 182b 183b 184a 185a 186a 187a 188b 189b 190b 191a 192b 193b 194b 195b 196a 197b 198a 199b 200a 201b 202a 203a 204a 205a 206a 207a 208b 209a 210b 211a 212a 213b 214c 215c 216b 217a 218a 219b 220b 221b 222b 223b 224b 225b 226b 227c 228b 229a 230b 231b 232a 233a 234b 235b 236b 237b 238a 239a 240a 241a 242c 243c 244b 245c 246b 247b 248b 249b 250b 251a 252b 253b 254a 255a 256b 257c 258a 259c 260a 261b 262c 263a 264b 265b 266a 267b 268b 269a 270b 271b 272b 273c 274c 275b 276c 277c 278c 279c 280a 281b 282a 283a 284b 285a 286b 287a 288b 289b 
 1c 2c 3b 4b 5c 6b 7c 8c 9a 10a 11a 12b 13b 14a 15b 16b 17b 18a 19a 20a 21b 22a 23a 24b 25a 26a 27b 28b 29b 30a 31b 32b 33c 34b 35a 36b 37b 38a 39a 40b 41b 42b 43a 44b 45a 46b 47a 48b 49a 50a 51b 52a 53a 54b 55a 56b 57b 58b 59a 60a 61b 62a 63a 64b 65b 66a 67a 68b 69b 70a 71a 72b 73a 74a 75a 76b 77b 78a 79a 80b 81a 82b 83a 84a 85b 86b 87a 88b 89c 90a 91b 92b 93a 94a 95b 96b 97a 98b 99a 100b 101b 102b 103a 104a 105a 106b 107a 108b 109a 110b 111b 112b 113b 114b 115b 116b 117a 118b 119a 120a 121b 122b 123a 124a 125b 126a 127b 128a 129b 130b 131b 132a 133b 134c 135a 136b 137b 138b 139a 140b 141a 142c 143a 144c 145b 146b 147b 148b 149a 150b 151b 152a 153c 154a 155a 156c 157b 158c 159a 160b 161b 162a 163b 164a 165b 166a 167a 168b 169a 170c 171a 172a 173b 174c 175a 176a 177b 178b 179b 180a 181b 182b 183b 184b 185b 186b 187a 188a 189a 190a 191c 192a 193b 194a 195c 196a 197a 198b 199b 200b 201a 202a 203a 204a 205a 206b 207a 208b 209b 210b 211a 212c 213a 214a 215a 216c 217c 218c 219a 220a 221a 222b 223b 224a 225c 226b 227b 228a 229b 230a 231a 232b 233a 234b 235b 236a 237b 238b 239a 240a 241a 242a 243a 244a 245b 246c 247c 248b 249a 250a 251b 252b 253b 254a 255b 256a 257c 258a 259c 260b 261c 262a 263b 264a 265b 266a 267a 268b 269a 270a 271a 272c 273c 274b 275c 276a 277a 278c 279c 280a 281b 282b 283b 284a 285b 286b 287a 288a 289a 
 1a 2a 
 1b 2b 
 1c 2b 
 1d 2b 
 1e 2a 
 1f 2a 
 1g 2a 
 1h 2b 
 1i 2b 
 1j 2b 
 1k 2a 
 1l 2a 
 1b 2a 
 1j 2a 
 1l 2b 
 1i 2a 
 1g 2b 
 1h 2a 
 1f 2b 
 1d 2a 
 1e 2b 
 1c 2a 
 1k 2b 
Could not cover tuple  1a 3a 
Could not cover tuple  3a 6c 
Could not cover tuple  3a 5b 
Could not cover tuple  3a 5a 
Could not cover tuple  3a 4b 
Could not cover tuple  3c 4a 
Could not cover tuple  3a 4a 
Could not cover tuple  2c 4a 
Could not cover tuple  2c 3a 
Could not cover tuple  2a 3a 
Could not cover tuple  1c 3a 
Could not cover tuple  3c 4b 
 1a 2b 3b 4b 5c 6e 7d 8a 9b 10e 11b 
 1b 2c 3c 4c 5b 6b 7c 8c 9c 10b 11d 
 1c 2b 3b 4a 5a 6a 7b 8b 9a 10c 11a 
 1a 2a 3c 4c 5b 6d 7a 8b 9b 10f 11c 
 1b 2b 3a 4c 5c 6e 7a 8c 9a 10a 11e 
 1c 2c 3c 4c 5b 6c 7b 8a 9a 10d 11b 
 1b 2a 3b 4a 5b 6c 7d 8c 9c 10d 11e 
 1b 2b 3b 4b 5a 6d 7c 8a 9c 10a 11c 
 1b 2b 3a 4c 5c 6a 7c 8b 9b 10d 11d 
 1a 2b 3b 4b 5a 6b 7b 8c 9a 10f 11d 
 1a 2b 3b 4a 5a 6c 7a 8a 9b 10b 11a 
 1a 2c 3c 4c 5b 6e 7d 8b 9c 10c 11a 
 1b 2a 3c 4c 5a 6a 7a 8c 9c 10e 11b 
 1b 2b 3a 4c 5c 6d 7b 8c 9b 10c 11c 
 1c 2a 3c 4c 5b 6b 7c 8b 9b 10a 11e 
 1b 2b 3a 4c 5c 6b 7d 8a 9c 10b 11a 
 1c 2b 3b 4b 5b 6d 7d 8b 9a 10e 11e 
 1b 2c 3b 4b 5b 6a 7b 8a 9c 10f 11e 
 1c 2b 3b 4a 5a 6e 7d 8c 9c 10a 11d 
 1b 2a 3b 4b 5b 6e 7b 8a 9a 10b 11e 
 1b 2c 3c 4c 5c 6c 7c 8b 9a 10e 11c 
 1b 2b 3a 4c 5c 6e 7c 8b 9b 10f 11b 
 1c 2b 3b 4a 5c 6b 7c 8a 9b 10c 11c 
 1a 2c 3b 4c 5b 6d 7c 8c 9b 10d 11a 
 1b 2b 3a 4c 5c 6b 7a 8a 9b 10e 11d 
 1c 2b 3b 4a 5a 6d 7a 8b 9c 10b 11b 
 1a 2b 3b 4b 5a 6e 7a 8a 9a 10d 11c 
 1a 2b 3c 4c 5b 6a 7d 8a 9c 10a 11c 
 1a 2b 3b 4b 5a 6c 7a 8a 9a 10c 11e 
 1b 2a 3c 4c 5c 6d 7d 8c 9c 10c 11d 
 1b 2c 3c 4c 5a 6b 7b 8b 9a 10a 11b 
 1c 2a 3b 4c 5b 6c 7d 8b 9a 10f 11a 
 1a 2b 3b 4a 5b 6c 7b 8c 9a 10e 11a 
 1b 2c 3b 4b 5b 6c 7a 8a 9a 10a 11a 
 1b 2c 3c 4c 5a 6a 7a 8c 9b 10b 11c 
 1b 2b 3b 4a 5a 6c 7b 8c 9a 10f 11d 
 1b 2a 3c 4c 5c 6b 7c 8c 9b 10d 11d 
 1b 2b 3b 4b 5a 6d 7b 8c 9b 10c 11b 
 1a 2b 3a 4c 5b 6d 7d 8c 9c 10d 11d 
 1c 2c 3b 4a 5b 6d 7d 8a 9a 10c 11b 
 1a 2a 3a 4c 5a 6d 7a 8a 9b 10d 11b 
 1a 2a 3c 4c 5c 6d 7a 8c 9b 10b 11c 
 1a 2c 3c 4a 5c 6d 7d 8a 9c 10a 11b 
 1b 2c 3a 4a 5b 6b 7b 8c 9b 10b 11a 
 1a 2a 3c 4b 5c 6c 7a 8b 9c 10d 11a 
 1b 2a 3a 4a 5b 6a 7c 8c 9a 10e 11d 
 1a 2a 3b 4a 5a 6c 7c 8b 9c 10a 11a 
 1c 2c 3b 4b 5c 6b 7a 8c 9c 10d 11b 
 1a 2a 3b 4c 5a 6c 7b 8a 9b 10f 11d 
 1b 2c 3a 4c 5c 6d 7d 8a 9c 10b 11e 
 1c 2a 3a 4b 5b 6a 7d 8b 9c 10c 11c 
 1c 2b 3c 4a 5a 6d 7c 8c 9c 10e 11e 
 1a 2a 3c 4c 5c 6c 7a 8c 9c 10d 11b 
 1a 2b 3b 4c 5c 6c 7b 8c 9c 10f 11d 
 1a 2b 3a 4c 5c 6a 7b 8c 9b 10e 11b 
 1c 2a 3c 4c 5a 6e 7b 8a 9a 10f 11a 
Could not cover tuple  2a 
Could not cover tuple  5a 
Could not cover tuple  3a 4b 8b 12b 
 1a 2b 3b 4a 5b 6a 7a 8b 9b 10b 11b 12b 
 1a 2b 3a 4b 5b 6a 7a 8a 9b 10b 11b 12a 
 1a 2b 3a 4a 5b 6a 7a 8a 9b 10b 11b 12b 
 1a 2b 3b 4b 5b 6a 7a 8b 9b 10b 11b 12a 
 1a 2b 3a 4a 5b 6a 7a 8b 9b 10b 11b 12a 
 1a 2b 3b 4b 5b 6a 7a 8a 9b 10b 11b 12b 
 1a 2b 3a 4b 5b 6a 7a 8b 9b 10b 11b 12a 
 1a 2b 3b 4a 5b 6a 7a 8a 9b 10b 11b 12a 
 1a 2b 3a 4b 5b 6a 7a 8a 9b 10b 11b 12b 
 1a 2b 3b 4b 5b 6a 7a 8b 9b 10b 11b 12b 
 1a 2b 3a 4a 5b 6a 7a 8b 9b 10b 11b 12b 
 1a 2b 3b 4a 5b 6a 7a 8a 9b 10b 11b 12b 
 1a 2b 3a 4a 5b 6a 7a 8a 9b 10b 11b 12a 
 1a 2b 3b 4b 5b 6a 7a 8a 9b 10b 11b 12a 
 1a 2b 3b 4a 5b 6a 7a 8b 9b 10b 11b 12a 
Could not cover tuple  1a 
Could not cover tuple  1b 
Could not cover tuple  2a 
Could not cover tuple  2b 
Could not cover tuple  3a 
Could not cover tuple  3b 
Could not cover tuple  4a 
Could not cover tuple  4b 
Could not cover tuple  5a 
Could not cover tuple  5b 
Could not cover tuple  6a 
Could not cover tuple  6b 
Could not cover tuple  7a 
Could not cover tuple  7b 
Could not cover tuple  8a 
Could not cover tuple  8b 
Could not cover tuple  9a 
Could not cover tuple  9b 
Could not cover tuple  10a 
Could not cover tuple  10b 
Could not cover tuple  11a 
Could not cover tuple  11b 
Could not cover tuple  12a 
Could not cover tuple  12b 
Could not cover tuple  13a 
Could not cover tuple  13b 
Could not cover tuple  14a 
Could not cover tuple  14b 
Could not cover tuple  15a 
Could not cover tuple  15b 
Could not cover tuple  16a 
Could not cover tuple  16b 
Could not cover tuple  17a 
Could not cover tuple  17b 
Could not cover tuple  18a 
Could not cover tuple  18b 
Could not cover tuple  19a 
Could not cover tuple  19b 
Could not cover tuple  20a 
Could not cover tuple  20b 
Could not cover tuple  21a 
Could not cover tuple  21b 
Could not cover tuple  22a 
Could not cover tuple  22b 
Could not cover tuple  23a 
Could not cover tuple  23b 
Could not cover tuple  24a 
Could not cover tuple  24b 
Could not cover tuple  25a 
Could not cover tuple  25b 
Could not cover tuple  26a 
Could not cover tuple  26b 
Could not cover tuple  27a 
Could not cover tuple  27b 
 1b 2b 3a 4a 5b 6a 7b 8b 9b 10b 11a 12a 13a 14b 15a 16b 17b 18b 19b 20a 21b 22a 23b 24b 25a 26b 27b 28b 
 1a 2a 3b 4b 5b 6b 7b 8b 9b 10b 11a 12b 13a 14a 15a 16a 17b 18a 19a 20b 21b 22a 23b 24b 25b 26a 27a 28c 
 1a 2a 3b 4b 5a 6a 7b 8a 9a 10b 11b 12a 13b 14b 15a 16b 17b 18b 19a 20b 21b 22b 23a 24a 25a 26a 27b 28d 
 1b 2b 3b 4b 5a 6a 7b 8a 9a 10a 11a 12b 13b 14a 15b 16b 17a 18a 19a 20a 21a 22a 23a 24b 25b 26a 27b 28f 
 1b 2b 3b 4b 5b 6b 7b 8b 9b 10b 11a 12a 13b 14b 15a 16b 17b 18b 19b 20b 21b 22a 23b 24a 25a 26b 27a 28g 
 1b 2b 3a 4a 5b 6a 7b 8a 9a 10b 11a 12b 13b 14b 15a 16b 17a 18b 19b 20b 21b 22b 23a 24a 25a 26a 27a 28h 
 1a 2a 3a 4a 5b 6a 7a 8a 9b 10b 11a 12b 13b 14b 15a 16b 17b 18b 19a 20b 21a 22b 23b 24a 25b 26a 27a 28j 
 1b 2b 3a 4b 5b 6b 7a 8a 9a 10a 11a 12a 13a 14a 15b 16b 17b 18b 19b 20a 21a 22a 23a 24b 25a 26b 27b 28k 
 1b 2a 3a 4a 5a 6b 7b 8a 9b 10a 11a 12b 13a 14b 15b 16b 17a 18a 19b 20a 21a 22b 23a 24b 25b 26b 27b 28l 
 1a 2a 3a 4b 5a 6a 7b 8a 9a 10b 11b 12a 13b 14a 15b 16a 17b 18b 19b 20b 21a 22a 23b 24b 25b 26b 27a 28m 
 1b 2a 3b 4a 5a 6b 7a 8b 9b 10b 11b 12b 13b 14b 15a 16a 17a 18b 19a 20a 21a 22a 23b 24a 25a 26b 27a 28n 
 1b 2a 3a 4b 5b 6b 7a 8a 9a 10b 11b 12a 13a 14b 15b 16a 17a 18a 19b 20a 21a 22b 23a 24a 25b 26a 27a 28p 
 1b 2a 3b 4a 5a 6a 7b 8a 9b 10b 11a 12a 13b 14b 15a 16b 17a 18b 19b 20b 21b 22a 23a 24a 25b 26a 27a 28q 
 1b 2b 3a 4a 5a 6a 7a 8b 9b 10a 11b 12b 13a 14a 15a 16b 17a 18a 19b 20b 21b 22b 23b 24b 25b 26a 27a 28r 
 1a 2b 3b 4b 5b 6b 7a 8a 9b 10b 11a 12b 13b 14b 15a 16b 17a 18b 19a 20b 21b 22b 23a 24b 25b 26b 27a 28s 
 1b 2a 3b 4a 5a 6b 7b 8a 9a 10b 11a 12b 13a 14a 15b 16a 17b 18a 19a 20b 21b 22b 23a 24b 25a 26a 27a 28t 
 1a 2b 3b 4b 5b 6b 7a 8b 9a 10a 11b 12a 13b 14b 15a 16a 17a 18a 19b 20b 21b 22b 23a 24a 25a 26b 27b 28v 
 1a 2a 3a 4a 5b 6a 7b 8b 9a 10b 11a 12a 13b 14b 15b 16a 17a 18a 19a 20a 21b 22b 23b 24b 25b 26a 27b 28w 
 1a 2a 3b 4b 5b 6a 7b 8b 9b 10b 11b 12b 13b 14a 15b 16b 17b 18a 19a 20b 21b 22b 23a 24a 25a 26b 27a 28x 
 1a 2a 3a 4a 5a 6b 7a 8b 9b 10a 11b 12a 13b 14a 15a 16a 17a 18b 19b 20a 21b 22b 23a 24b 25a 26a 27b 28z 
 1a 2a 3b 4b 5a 6a 7a 8a 9a 10b 11b 12a 13b 14a 15b 16a 17a 18b 19a 20b 21a 22a 23b 24a 25a 26b 27a 28B 
 1a 2b 3a 4a 5b 6a 7a 8a 9a 10a 11a 12b 13a 14a 15b 16b 17a 18b 19a 20a 21a 22a 23a 24a 25b 26b 27a 28C 
 1a 2a 3a 4b 5b 6a 7b 8a 9a 10a 11a 12b 13a 14a 15b 16a 17b 18a 19a 20b 21b 22b 23b 24a 25a 26a 27b 28D 
 1b 2a 3b 4a 5b 6b 7b 8b 9b 10a 11b 12a 13a 14a 15a 16a 17a 18a 19a 20b 21b 22a 23b 24a 25b 26b 27b 28F 
 1b 2b 3b 4b 5a 6a 7b 8b 9b 10a 11a 12b 13b 14b 15a 16a 17a 18a 19b 20b 21a 22a 23a 24b 25a 26a 27a 28G 
 1b 2b 3b 4a 5a 6b 7a 8b 9a 10a 11b 12a 13a 14b 15b 16b 17a 18a 19a 20a 21b 22a 23a 24a 25a 26b 27b 28H 
 1a 2a 3a 4a 5a 6b 7b 8b 9a 10b 11a 12a 13a 14a 15b 16b 17b 18a 19b 20b 21a 22a 23a 24b 25b 26a 27b 28J 
 1a 2a 3b 4a 5a 6b 7b 8b 9b 10b 11a 12b 13a 14a 15b 16a 17a 18b 19a 20a 21b 22a 23a 24a 25b 26a 27a 28K 
 1a 2a 3a 4b 5b 6b 7a 8a 9a 10a 11b 12b 13b 14a 15b 16b 17a 18a 19a 20b 21a 22a 23a 24a 25a 26b 27b 28L 
 1b 2b 3b 4a 5b 6a 7a 8b 9b 10b 11b 12b 13a 14b 15a 16a 17a 18a 19a 20b 21a 22a 23b 24a 25a 26b 27b 28M 
 1a 2b 3a 4b 5b 6a 7b 8b 9a 10a 11b 12a 13b 14b 15a 16a 17a 18b 19a 20a 21a 22b 23b 24a 25b 26b 27b 28N 
 1b 2b 3b 4a 5b 6a 7b 8b 9b 10b 11a 12a 13a 14b 15b 16a 17b 18a 19b 20a 21b 22b 23a 24b 25b 26b 27b 28P 
 1b 2a 3a 4a 5b 6a 7b 8a 9b 10b 11b 12a 13b 14a 15a 16a 17a 18b 19b 20a 21b 22b 23a 24a 25b 26b 27b 28Q 
 1a 2a 3a 4a 5a 6a 7b 8b 9b 10a 11b 12a 13a 14a 15b 16a 17b 18b 19a 20a 21b 22a 23b 24b 25b 26a 27b 28R 
 1a 2a 3b 4b 5a 6b 7b 8b 9a 10a 11a 12a 13b 14b 15b 16b 17b 18a 19b 20a 21a 22a 23b 24a 25a 26b 27a 28S 
 1b 2b 3b 4b 5a 6b 7a 8b 9b 10b 11b 12a 13b 14a 15a 16b 17b 18b 19b 20b 21b 22b 23b 24a 25a 26a 27a 28T 
 1b 2a 3a 4b 5b 6a 7b 8b 9a 10a 11b 12b 13a 14b 15b 16b 17b 18a 19a 20b 21a 22b 23a 24a 25b 26a 27a 28V 
[...]
Could not cover tuple  1c 3h 
Could not cover tuple  1d 3h 
Could not cover tuple  1c 3f 
Could not cover tuple  1c 3e 
Could not cover tuple  1c 3g 
Could not cover tuple  1g 3a 
Could not cover tuple  1g 3c 
Could not cover tuple  1e 3c 
Could not cover tuple  1f 3c 
Could not cover tuple  1h 3c 
Could not cover tuple  1f 3a 
Could not cover tuple  1g 3b 
Could not cover tuple  1f 3d 
Could not cover tuple  1a 3e 
Could not cover tuple  1a 3g 
Could not cover tuple  1b 3f 
Could not cover tuple  1d 3f 
Could not cover tuple  1e 3a 
Could not cover tuple  1h 3a 
Could not cover tuple  1e 3b 
Could not cover tuple  1e 3d 
Could not cover tuple  1d 3e 
Could not cover tuple  1d 3g 
Could not cover tuple  1b 3e 
Could not cover tuple  1h 3b 
Could not cover tuple  1g 3d 
Could not cover tuple  1b 3g 
Could not cover tuple  1f 3b 
Could not cover tuple  1h 3d 
 1a 2g 3d 
 1b 2h 3a 
 1c 2f 3b 
 1d 2e 3c 
 1e 2c 3h 
 1f 2b 3g 
 1g 2a 3f 
 1h 2d 3e 
 1a 2e 3b 
 1b 2e 3d 
 1c 2e 3d 
 1d 2f 3d 
 1e 2a 3f 
 1f 2a 3e 
 1g 2b 3e 
 1h 2a 3g 
 1a 2f 3a 
 1a 2h 3c 
 1f 2d 3h 
 1e 2d 3g 
 1g 2c 3h 
 1h 2b 3h 
 1d 2g 3a 
 1d 2h 3b 
 1b 2g 3c 
 1f 2c 3f 
 1e 2b 3e 
 1g 2d 3g 
 1h 2c 3f 
 1d 2e 3a 
 1b 2g 3b 
 1b 2f 3c 
 1c 2h 3d 
 1e 2b 3f 
 1c 2f 3c 
 1c 2h 3a 
 1h 2c 3e 
 1f 2c 3g 
 1c 2g 3b 
 1f 2a 3h 
 1f 2d 3f 
 1b 2e 3a 
 1d 2e 3b 
 1h 2a 3e 
 1e 2b 3g 
 1e 2d 3e 
 1a 2f 3b 
 1a 2h 3a 
 1a 2e 3d 
 1e 2a 3h 
 1b 2h 3d 
 1d 2h 3d 
 1h 2d 3h 
 1h 2b 3g 
 1d 2f 3b 
 1e 2c 3f 
 1b 2h 3c 
 1f 2a 3f 
 1h 2b 3f 
 1h 2d 3g 
 1d 2f 3a 
 1h 2c 3h 
 1b 2h 3b 
 1f 2d 3e 
 1g 2a 3h 
 1h 2b 3e 
 1c 2f 3d 
 1b 2g 3d 
 1d 2h 3c 
 1f 2c 3h 
 1g 2d 3h 
 1g 2b 3h 
 1d 2f 3c 
 1d 2g 3b 
 1h 2d 3f 
 1b 2g 3a 
 1f 2c 3e 
 1g 2b 3g 
 1c 2f 3a 
 1c 2e 3b 
 1d 2e 3d 
 1g 2d 3f 
 1a 2h 3b 
 1b 2f 3d 
 1f 2b 3h 
 1g 2c 3f 
 1a 2g 3b 
 1b 2f 3b 
 1f 2b 3f 
 1g 2d 3e 
 1d 2h 3a 
 1a 2f 3c 
 1d 2g 3d 
 1b 2f 3a 
 1c 2g 3d 
 1e 2d 3f 
 1f 2b 3e 
 1h 2c 3g 
 1h 2a 3f 
 1c 2h 3c 
 1h 2a 3h 
 1a 2f 3d 
 1b 2e 3c 
 1e 2b 3h 
 1f 2d 3g 
 1a 2h 3d 
 1c 2h 3b 
 1b 2e 3b 
 1d 2g 3c 
 1e 2d 3h 
 1f 2a 3g 
 1g 2b 3f 
Could not cover tuple  1c 4a 
 1a 2d 3b 4c 5b 6b 7a 8c 9a 10A 11b 12a 13a 
 1b 2c 3a 4b 5a 6a 7c 8a 9b 10V 11a 12b 13b 
 1c 2b 3a 4c 5b 6a 7d 8b 9b 10D 11a 12a 13a 
 1b 2a 3b 4a 5a 6b 7b 8b 9a 10x 11b 12b 13b 
 1c 2a 3a 4b 5b 6b 7c 8a 9a 10c 11b 12b 13a 
 1a 2b 3b 4a 5a 6a 7a 8c 9b 10d 11a 12b 13b 
 1a 2c 3b 4a 5b 6b 7d 8a 9b 10e 11b 12a 13b 
 1b 2d 3a 4b 5a 6a 7b 8c 9b 10f 11a 12a 13a 
 1c 2d 3a 4c 5a 6a 7d 8a 9a 10g 11b 12b 13b 
 1a 2b 3b 4b 5a 6b 7c 8b 9a 10h 11a 12a 13b 
 1b 2a 3a 4c 5b 6a 7d 8c 9b 10i 11a 12a 13a 
 1c 2c 3a 4c 5b 6a 7b 8c 9a 10j 11b 12a 13a 
 1b 2b 3a 4b 5b 6b 7a 8a 9b 10k 11b 12a 13a 
 1b 2d 3b 4a 5b 6a 7c 8b 9a 10l 11a 12b 13a 
 1a 2c 3a 4c 5a 6b 7a 8b 9b 10m 11b 12b 13b 
 1a 2b 3a 4c 5b 6a 7b 8a 9a 10n 11b 12b 13a 
 1a 2a 3b 4c 5b 6b 7c 8c 9a 10o 11b 12a 13b 
 1a 2c 3a 4b 5a 6b 7d 8b 9a 10p 11b 12b 13a 
 1c 2a 3a 4c 5b 6b 7a 8b 9b 10q 11a 12a 13b 
 1a 2c 3b 4b 5b 6a 7d 8c 9a 10r 11a 12b 13b 
 1a 2b 3b 4c 5b 6a 7b 8a 9b 10s 11a 12a 13a 
 1c 2a 3a 4b 5a 6a 7b 8a 9a 10t 11a 12b 13b 
 1a 2b 3b 4c 5b 6b 7d 8b 9b 10u 11a 12a 13b 
 1a 2a 3a 4c 5b 6b 7a 8a 9a 10v 11a 12a 13a 
 1a 2a 3b 4c 5b 6a 7d 8a 9b 10w 11a 12b 13b 
 1b 2c 3a 4c 5b 6b 7b 8b 9b 10y 11b 12a 13a 
 1c 2c 3a 4c 5a 6b 7a 8c 9b 10z 11b 12a 13b 
 1a 2b 3b 4a 5a 6b 7d 8a 9b 10B 11a 12b 13b 
 1b 2c 3a 4b 5b 6a 7c 8b 9b 10C 11b 12a 13a 
 1a 2b 3b 4c 5a 6a 7c 8c 9b 10F 11a 12a 13a 
 1b 2d 3b 4a 5b 6a 7b 8b 9a 10G 11b 12a 13a 
 1a 2b 3b 4b 5a 6a 7d 8c 9b 10I 11b 12a 13b 
 1b 2d 3b 4b 5b 6a 7a 8b 9a 10J 11b 12a 13a 
 1b 2b 3b 4b 5a 6a 7d 8b 9b 10K 11b 12a 13b 
 1a 2b 3a 4c 5b 6b 7b 8a 9b 10L 11a 12b 13b 
 1a 2a 3a 4b 5a 6a 7d 8b 9b 10M 11a 12a 13b 
 1b 2c 3a 4b 5b 6b 7c 8b 9a 10N 11b 12a 13a 
 1b 2c 3b 4a 5b 6b 7a 8a 9b 10O 11b 12a 13b 
 1a 2b 3a 4c 5a 6b 7d 8a 9b 10P 11b 12b 13b 
 1b 2b 3b 4c 5a 6a 7c 8c 9a 10Q 11a 12a 13b 
 1c 2d 3a 4b 5b 6b 7b 8a 9b 10R 11a 12a 13b 
 1b 2c 3a 4c 5b 6a 7a 8b 9b 10T 11a 12b 13a 
 1b 2c 3b 4a 5a 6a 7c 8b 9b 10U 11b 12a 13b 
 1c 2a 3a 4c 5b 6b 7b 8a 9b 10W 11a 12a 13b 
 1b 2d 3b 4a 5b 6a 7a 8c 9a 10P 11a 12a 13a 
 1c 2c 3a 4b 5b 6b 7b 8b 9b 10P 11b 12a 13a 
 1b 2d 3b 4b 5b 6a 7b 8b 9a 10z 11a 12b 13a 
 1a 2c 3b 4a 5b 6b 7a 8c 9a 10K 11a 12b 13a 
 1c 2b 3a 4b 5a 6a 7d 8c 9a 10y 11a 12b 13b 
 1a 2d 3b 4a 5a 6a 7a 8a 9a 10y 11a 12a 13b 
 1c 2c 3a 4b 5b 6a 7c 8a 9b 10x 11a 12a 13a 
 1c 2a 3a 4c 5b 6b 7a 8b 9a 10I 11a 12b 13a 
 1a 2d 3a 4c 5a 6a 7d 8c 9b 10x 11a 12a 13b 
 1a 2b 3b 4a 5b 6b 7c 8a 9b 10z 11a 12b 13b 
 1b 2a 3a 4b 5a 6a 7c 8b 9b 10A 11a 12b 13b 
 1b 2d 3a 4b 5a 6b 7c 8b 9a 10w 11b 12a 13a 
 1b 2b 3b 4a 5a 6b 7b 8c 9b 10w 11b 12b 13b 
 1c 2c 3a 4c 5a 6a 7a 8b 9b 10w 11a 12a 13b 
 1c 2a 3a 4b 5b 6a 7c 8c 9a 10B 11b 12a 13a 
 1b 2d 3b 4b 5a 6a 7d 8c 9b 10v 11b 12b 13b 
 1b 2c 3b 4a 5b 6b 7b 8b 9b 10v 11a 12b 13a 
 1c 2a 3a 4b 5a 6a 7a 8a 9a 10u 11b 12b 13a 
 1b 2d 3b 4a 5b 6b 7c 8c 9b 10u 11b 12b 13b 
 1a 2a 3b 4c 5a 6b 7a 8a 9a 10C 11a 12b 13b 
 1a 2d 3b 4c 5b 6b 7c 8b 9b 10t 11b 12a 13a 
 1b 2b 3b 4a 5b 6a 7a 8c 9a 10t 11b 12b 13b 
 1c 2c 3a 4b 5a 6b 7a 8b 9a 10s 11b 12b 13b 
 1b 2a 3b 4a 5b 6a 7c 8c 9b 10s 11b 12a 13b 
 1b 2d 3b 4c 5a 6b 7d 8b 9a 10s 11a 12b 13b 
 1a 2b 3a 4c 5a 6b 7b 8c 9b 10J 11a 12b 13b 
 1c 2b 3a 4c 5a 6b 7c 8a 9b 10r 11b 12a 13a 
 1b 2a 3b 4a 5b 6a 7a 8b 9b 10r 11b 12a 13a 
 1b 2d 3b 4b 5a 6a 7b 8b 9a 10r 11b 12a 13b 
 1c 2d 3a 4b 5b 6b 7b 8a 9a 10F 11b 12b 13b 
 1b 2a 3b 4b 5a 6b 7b 8c 9a 10D 11b 12b 13b 
 1a 2d 3b 4a 5a 6a 7b 8c 9a 10q 11b 12b 13a 
 1c 2c 3a 4c 5a 6a 7d 8a 9b 10A 11b 12b 13a 
 1b 2a 3b 4c 5b 6a 7c 8a 9b 10p 11a 12a 13b 
 1b 2b 3b 4a 5a 6a 7a 8c 9a 10p 11b 12a 13b 
 1a 2d 3b 4a 5a 6a 7d 8c 9a 10C 11b 12a 13b 
 1c 2d 3a 4b 5b 6a 7b 8c 9a 10p 11a 12b 13a 
 1a 2a 3a 4c 5a 6b 7c 8a 9b 10G 11a 12b 13b 
 1b 2c 3a 4b 5a 6a 7d 8a 9b 10o 11a 12b 13a 
 1c 2d 3a 4b 5a 6b 7c 8b 9b 10n 11a 12a 13b 
 1b 2a 3b 4a 5a 6b 7d 8c 9b 10n 11a 12a 13b 
 1c 2b 3a 4b 5b 6a 7b 8c 9a 10m 11a 12a 13a 
 1b 2a 3b 4a 5a 6b 7c 8a 9a 10m 11b 12b 13a 
 1b 2c 3b 4b 5b 6b 7c 8a 9a 10q 11b 12b 13a 
 1c 2b 3a 4b 5b 6b 7a 8b 9a 10o 11b 12b 13b 
 1b 2d 3b 4c 5b 6b 7d 8c 9a 10m 11b 12a 13a 
 1c 2a 3a 4c 5a 6b 7d 8c 9b 10l 11b 12a 13b 
 1a 2c 3b 4b 5b 6a 7a 8a 9b 10l 11a 12a 13b 
 1b 2d 3b 4a 5b 6b 7b 8a 9b 10o 11b 12a 13a 
 1a 2a 3b 4a 5a 6a 7c 8c 9a 10k 11a 12b 13b 
 1b 2b 3a 4c 5a 6b 7d 8b 9a 10q 11b 12a 13b 
 1c 2c 3a 4c 5a 6b 7b 8b 9a 10k 11a 12a 13a 
 1b 2a 3b 4b 5a 6a 7a 8b 9a 10L 11b 12a 13a 
 1b 2b 3b 4a 5a 6b 7d 8b 9b 10j 11a 12b 13b 
 1b 2c 3b 4a 5b 6b 7c 8a 9b 10I 11a 12b 13b 
 1a 2d 3a 4b 5b 6b 7c 8a 9a 10j 11b 12b 13b 
 1a 2a 3b 4a 5b 6a 7a 8c 9a 10j 11a 12a 13b 
 1a 2b 3b 4b 5a 6a 7b 8a 9b 10l 11a 12a 13a 
 1c 2b 3a 4b 5b 6a 7c 8a 9b 10v 11a 12a 13b 
 1a 2c 3b 4a 5a 6b 7a 8b 9a 10i 11b 12b 13b 
 1c 2d 3a 4b 5a 6b 7b 8a 9a 10i 11b 12a 13a 
 1b 2d 3a 4b 5b 6b 7d 8c 9a 10k 11a 12a 13a 
 1a 2c 3b 4c 5a 6a 7b 8b 9b 10c 11a 12a 13b 
 1b 2d 3a 4b 5b 6b 7c 8b 9a 10d 11b 12a 13a 
 1b 2a 3a 4b 5a 6a 7c 8b 9a 10e 11a 12b 13a 
 1a 2c 3b 4c 5b 6b 7a 8a 9a 10f 11b 12b 13b 
 1a 2c 3b 4b 5b 6b 7b 8b 9b 10g 11a 12a 13a 
 1b 2c 3a 4c 5b 6a 7d 8c 9b 10h 11b 12b 13a 
 1b 2b 3b 4c 5b 6b 7c 8a 9a 10M 11b 12b 13a 
 1a 2a 3b 4a 5a 6a 7a 8a 9b 10N 11a 12b 13b 
 1a 2b 3a 4c 5a 6a 7d 8c 9a 10O 11a 12b 13a 
 1a 2c 3a 4b 5b 6b 7d 8b 9b 10Q 11b 12b 13a 
 1a 2c 3b 4a 5a 6a 7a 8b 9a 10R 11b 12b 13a 
 1a 2a 3b 4a 5a 6b 7d 8c 9a 10T 11b 12a 13b 
 1a 2d 3a 4c 5b 6b 7d 8a 9a 10U 11a 12b 13a 
 1a 2b 3b 4a 5b 6b 7d 8b 9a 10V 11b 12a 13a 
 1a 2d 3b 4a 5a 6a 7d 8b 9a 10W 11b 12b 13a 
 1c 2d 3a 4b 5b 6a 7a 8a 9a 10h 11b 12a 13a 
 1c 2a 3a 4c 5a 6a 7c 8b 9b 10f 11b 12a 13a 
 1b 2a 3b 4a 5b 6a 7b 8b 9b 10h 11b 12b 13a 
 1c 2b 3a 4c 5b 6b 7a 8c 9a 10e 11b 12b 13b 
 1a 2d 3a 4b 5a 6b 7b 8a 9a 10e 11b 12b 13b 
 1c 2a 3a 4c 5a 6b 7b 8a 9b 10d 11a 12b 13a 
 1c 2d 3a 4c 5a 6a 7b 8a 9b 10Q 11a 12a 13b 
 1a 2b 3b 4c 5b 6b 7c 8b 9a 10i 11a 12b 13b 
 1a 2a 3b 4a 5a 6b 7a 8b 9b 10Q 11a 12a 13b 
 1c 2d 3a 4c 5a 6a 7b 8c 9a 10M 11b 12b 13a 
 1a 2b 3b 4a 5b 6b 7d 8a 9b 10f 11a 12a 13a 
 1a 2c 3b 4c 5a 6a 7d 8c 9b 10d 11b 12b 13a 
 1b 2b 3b 4a 5a 6b 7a 8c 9b 10c 11a 12a 13a 
 1c 2c 3a 4c 5a 6b 7d 8a 9b 10J 11a 12a 13a 
 1b 2a 3a 4c 5a 6a 7d 8c 9a 10R 11a 12b 13a 
 1b 2c 3b 4c 5b 6b 7a 8b 9a 10B 11b 12b 13b 
 1c 2a 3a 4c 5b 6b 7b 8a 9a 10K 11a 12b 13a 
 1a 2a 3b 4c 5a 6b 7c 8a 9b 10P 11a 12a 13b 
 1c 2b 3a 4b 5b 6a 7c 8b 9a 10R 11a 12a 13a 
 1c 2d 3a 4b 5a 6b 7d 8a 9b 10c 11b 12b 13b 
 1a 2c 3b 4a 5b 6a 7a 8a 9a 10M 11a 12a 13b 
 1b 2b 3b 4a 5b 6b 7b 8c 9a 10A 11b 12a 13b 
 1c 2d 3a 4b 5a 6a 7c 8a 9b 10T 11a 12a 13a 
 1a 2b 3b 4a 5b 6a 7a 8b 9b 10x 11b 12b 13a 
 1b 2b 3a 4c 5a 6b 7b 8a 9a 10T 11a 12a 13b 
 1c 2a 3a 4b 5b 6b 7b 8c 9a 10U 11a 12a 13b 
 1a 2c 3b 4a 5a 6a 7a 8a 9a 10D 11a 12a 13b 
 1b 2d 3b 4a 5b 6b 7c 8c 9a 10L 11a 12b 13b 
 1c 2b 3a 4b 5a 6a 7d 8c 9b 10G 11b 12a 13b 
 1b 2a 3b 4a 5a 6a 7a 8c 9a 10g 11b 12b 13b 
 1b 2c 3a 4b 5a 6b 7a 8c 9a 10G 11a 12a 13a 
 1c 2d 3a 4c 5a 6b 7b 8c 9b 10I 11a 12b 13b 
 1a 2d 3b 4b 5b 6a 7c 8b 9b 10D 11b 12b 13a 
 1b 2a 3b 4a 5b 6a 7d 8b 9a 10F 11a 12a 13a 
 1c 2b 3a 4c 5a 6a 7d 8c 9a 10N 11a 12a 13a 
 1c 2a 3a 4b 5b 6b 7b 8b 9b 10O 11a 12a 13b 
 1c 2a 3a 4c 5a 6b 7b 8c 9b 10V 11a 12b 13b 
 1b 2b 3a 4b 5a 6b 7a 8c 9b 10W 11b 12b 13a 
 1c 2c 3a 4c 5b 6b 7a 8b 9a 10F 11b 12a 13b 
 1c 2d 3a 4b 5a 6b 7c 8b 9a 10K 11b 12a 13a 
 1a 2c 3b 4a 5a 6a 7a 8c 9b 10n 11a 12a 13a 
 1c 2a 3a 4b 5b 6b 7c 8a 9b 10y 11a 12b 13a 
 1c 2c 3a 4c 5a 6a 7d 8c 9a 10L 11b 12a 13a 
 1c 2d 3a 4b 5b 6b 7b 8a 9b 10B 11a 12a 13a 
 1b 2a 3b 4a 5b 6b 7c 8a 9b 10J 11b 12b 13b 
 1c 2b 3a 4b 5b 6b 7b 8c 9b 10C 11b 12b 13b 
 1a 2c 3b 4c 5b 6a 7b 8c 9b 10u 11b 12b 13a 
 1b 2d 3a 4b 5a 6b 7a 8c 9b 10V 11b 12b 13b 
 1a 2b 3b 4c 5b 6a 7c 8c 9a 10g 11a 12b 13a 
 1a 2c 3b 4b 5a 6b 7c 8b 9a 10W 11a 12a 13b 
 1a 2d 3b 4c 5a 6b 7b 8a 9b 10N 11b 12b 13a 
 1b 2c 3b 4c 5a 6b 7d 8a 9b 10t 11a 12b 13a 
 1a 2a 3a 4c 5b 6b 7d 8b 9a 10z 11a 12b 13a 
 1a 2d 3a 4c 5b 6a 7c 8a 9b 10O 11b 12a 13a 
 1b 2b 3a 4b 5a 6b 7a 8c 9a 10U 11a 12a 13a 
 1b 2d 3b 4a 5a 6b 7a 8c 9a 10a 11b 12a 13a 
 1c 2b 3a 4b 5a 6b 7c 8c 9b 10b 11a 12a 13a 
 1c 2a 3a 4b 5b 6a 7b 8a 9a 10E 11b 12a 13a 
 1b 2b 3a 4a 5a 6b 7a 8b 9a 10E 11b 12a 13a 
 1a 2a 3a 4b 5b 6b 7a 8c 9b 10H 11a 12b 13a 
 1a 2b 3b 4a 5b 6a 7c 8a 9b 10S 11b 12b 13b 
 1b 2a 3a 4a 5a 6a 7c 8b 9a 10x 11a 12b 13a 
 1b 2c 3a 4a 5a 6b 7b 8b 9a 10j 11a 12a 13b 
 1a 2c 3a 4a 5b 6a 7c 8a 9b 10c 11b 12a 13b 
 1c 2a 3b 4b 5b 6b 7a 8b 9a 10o 11a 12a 13a 
 1a 2a 3a 4a 5b 6a 7b 8F 9b 10a 11d 12c 13a 14b 15b 16a 17a 
 1b 2b 3b 4b 5a 6c 7a 8C 9a 10b 11a 12a 13b 14a 15c 16b 17b 
 1c 2a 3c 4b 5a 6b 7b 8z 9a 10a 11b 12b 13b 14a 15a 16a 17a 
 1c 2b 3c 4a 5b 6b 7a 8n 9b 10b 11c 12b 13a 14b 15a 16b 17b 
 1a 2b 3a 4b 5a 6a 7a 8o 9b 10b 11b 12c 13b 14a 15b 16b 17b 
 1b 2a 3b 4a 5b 6c 7b 8p 9a 10a 11c 12a 13a 14b 15c 16a 17a 
 1a 2b 3c 4a 5b 6c 7a 8q 9a 10b 11d 12c 13b 14a 15c 16a 17a 
 1c 2a 3a 4b 5a 6a 7b 8r 9a 10a 11a 12b 13a 14b 15b 16b 17b 
 1b 2a 3a 4b 5b 6c 7b 8s 9b 10b 11b 12a 13a 14a 15a 16b 17a 
 1a 2a 3b 4a 5a 6b 7a 8t 9b 10a 11a 12c 13b 14b 15a 16a 17a 
 1b 2b 3c 4b 5a 6b 7b 8u 9b 10a 11d 12a 13a 14b 15b 16a 17b 
 1a 2a 3b 4b 5a 6a 7a 8v 9b 10a 11c 12b 13b 14a 15c 16a 17a 
 1c 2a 3b 4a 5b 6a 7a 8w 9b 10a 11b 12a 13a 14b 15c 16a 17b 
 1c 2a 3a 4b 5b 6c 7a 8x 9a 10a 11c 12c 13a 14a 15b 16a 17a 
 1c 2b 3a 4a 5a 6b 7a 8y 9b 10b 11d 12b 13b 14b 15c 16b 17a 
 1a 2b 3b 4a 5b 6b 7b 8D 9a 10a 11d 12a 13a 14a 15a 16a 17b 
 1b 2a 3c 4a 5b 6a 7b 8G 9a 10a 11a 12b 13b 14b 15a 16a 17b 
 1c 2a 3b 4b 5b 6c 7b 8J 9a 10b 11b 12b 13a 14a 15b 16a 17b 
 1b 2b 3c 4a 5b 6a 7a 8K 9b 10b 11d 12c 13b 14b 15b 16a 17b 
 1c 2b 3a 4a 5a 6a 7a 8L 9b 10a 11b 12a 13a 14b 15b 16a 17b 
 1b 2b 3a 4b 5a 6b 7b 8M 9b 10b 11d 12c 13a 14b 15b 16b 17a 
 1a 2a 3b 4b 5a 6c 7b 8n 9a 10a 11a 12a 13b 14a 15b 16a 17a 
 1b 2a 3b 4a 5b 6b 7b 8o 9a 10a 11c 12b 13a 14b 15c 16a 17a 
 1a 2b 3a 4b 5a 6b 7a 8p 9b 10b 11d 12b 13b 14a 15b 16b 17b 
 1b 2a 3b 4b 5a 6a 7b 8q 9b 10a 11b 12b 13a 14b 15a 16b 17b 
 1a 2b 3b 4a 5b 6c 7a 8r 9b 10b 11d 12a 13b 14a 15c 16a 17a 
 1a 2b 3b 4a 5a 6a 7a 8s 9a 10a 11d 12b 13b 14b 15c 16a 17b 
 1b 2b 3c 4b 5b 6c 7b 8t 9a 10b 11d 12a 13a 14a 15c 16b 17b 
 1a 2a 3a 4a 5b 6a 7a 8u 9a 10b 11c 12c 13b 14a 15c 16b 17a 
 1b 2b 3a 4a 5b 6c 7b 8v 9a 10b 11a 12c 13a 14b 15a 16b 17b 
 1a 2b 3c 4b 5a 6b 7b 8w 9a 10b 11c 12b 13b 14a 15b 16b 17a 
 1a 2b 3c 4a 5a 6a 7b 8x 9b 10b 11a 12a 13b 14b 15c 16b 17b 
 1a 2a 3b 4b 5b 6a 7b 8y 9a 10a 11b 12c 13a 14a 15b 16a 17b 
 1a 2b 3b 4a 5b 6a 7a 8z 9b 10b 11c 12c 13a 14b 15c 16b 17b 
 1a 2a 3c 4a 5b 6a 7b 8C 9b 10a 11d 12b 13a 14b 15b 16a 17a 
 1b 2a 3c 4b 5a 6c 7a 8D 9b 10b 11c 12c 13b 14b 15b 16b 17a 
 1b 2b 3c 4b 5a 6b 7a 8F 9a 10b 11b 12b 13b 14a 15c 16b 17b 
 1a 2b 3a 4b 5a 6b 7a 8G 9b 10b 11d 12a 13a 14a 15b 16b 17a 
 1a 2b 3c 4a 5a 6b 7a 8J 9b 10a 11d 12c 13b 14b 15c 16b 17a 
 1a 2a 3b 4b 5a 6c 7b 8K 9a 10a 11c 12b 13a 14a 15c 16b 17a 
 1a 2a 3b 4b 5b 6c 7b 8L 9a 10b 11c 12c 13b 14a 15c 16b 17a 
 1a 2a 3c 4a 5b 6c 7a 8M 9a 10a 11c 12a 13b 14a 15c 16a 17b 
 1b 2b 3c 4a 5b 6b 7b 8L 9b 10a 11a 12b 13a 14b 15a 16a 17b 
 1c 2a 3b 4a 5a 6c 7b 8G 9a 10b 11b 12c 13b 14b 15c 16b 17a 
 1c 2a 3a 4b 5a 6b 7a 8q 9b 10a 11a 12a 13b 14b 15b 16b 17a 
 1c 2b 3c 4b 5a 6a 7b 8p 9a 10b 11a 12c 13b 14a 15a 16b 17a 
 1c 2b 3c 4a 5b 6c 7a 8o 9a 10b 11a 12a 13b 14b 15a 16a 17b 
 1b 2b 3c 4b 5a 6b 7a 8r 9b 10a 11b 12c 13a 14b 15a 16a 17b 
 1c 2a 3b 4a 5a 6a 7b 8M 9a 10a 11a 12b 13b 14b 15a 16b 17a 
 1b 2b 3a 4a 5b 6a 7b 8n 9b 10b 11b 12c 13b 14b 15c 16b 17b 
 1b 2b 3c 4b 5a 6c 7a 8y 9b 10a 11a 12a 13b 14a 15a 16a 17b 
 1c 2b 3c 4b 5b 6b 7b 8M 9a 10b 11b 12a 13b 14a 15b 16a 17a 
 1c 2a 3a 4b 5a 6a 7b 8t 9a 10b 11c 12b 13b 14a 15b 16a 17a 
 1b 2b 3a 4a 5a 6c 7a 8z 9b 10a 11a 12a 13a 14a 15b 16a 17b 
 1c 2a 3a 4a 5a 6a 7a 8D 9b 10b 11b 12b 13a 14a 15c 16a 17b 
 1b 2b 3a 4a 5b 6c 7a 8r 9b 10a 11c 12b 13b 14b 15b 16a 17b 
 1c 2a 3c 4a 5a 6b 7a 8s 9a 10b 11c 12c 13a 14a 15b 16a 17a 
 1c 2b 3b 4a 5b 6c 7b 8u 9b 10a 11a 12b 13b 14a 15a 16b 17a 
 1c 2a 3c 4b 5b 6b 7a 8v 9b 10b 11d 12a 13a 14a 15b 16a 17b 
 1b 2a 3a 4a 5b 6c 7b 8w 9a 10b 11d 12c 13b 14a 15a 16b 17b 
 1b 2a 3b 4a 5a 6b 7b 8x 9b 10a 11d 12b 13b 14b 15a 16a 17b 
 1c 2b 3a 4b 5a 6b 7a 8C 9b 10b 11b 12c 13b 14a 15a 16b 17a 
 1c 2a 3b 4b 5b 6c 7a 8F 9a 10a 11a 12a 13b 14a 15a 16b 17a 
 1b 2b 3a 4b 5b 6a 7a 8J 9a 10b 11c 12a 13a 14b 15a 16a 17b 
 1c 2b 3a 4a 5b 6b 7a 8K 9a 10a 11b 12a 13a 14a 15a 16b 17a 
 1a 2a 3b 4b 5b 6c 7b 8D 9a 10a 11a 12c 13a 14b 15b 16b 17a 
 1a 2a 3a 4b 5b 6b 7a 8p 9b 10b 11b 12a 13a 14a 15b 16b 17a 
 1a 2b 3b 4b 5b 6b 7b 8C 9a 10b 11c 12c 13b 14a 15a 16a 17b 
 1a 2b 3b 4a 5b 6b 7a 8s 9b 10a 11a 12c 13a 14a 15a 16a 17a 
 1b 2b 3c 4b 5a 6c 7b 8v 9a 10a 11b 12b 13a 14a 15c 16b 17a 
 1c 2a 3b 4a 5a 6c 7a 8G 9b 10b 11c 12b 13b 14b 15c 16b 17b 
 1b 2b 3b 4a 5a 6b 7b 8n 9a 10b 11d 12a 13a 14a 15a 16a 17a 
 1c 2b 3c 4a 5a 6c 7a 8w 9b 10a 11a 12b 13b 14b 15b 16b 17a 
 1b 2b 3c 4b 5b 6b 7a 8t 9b 10b 11b 12b 13b 14b 15a 16b 17b 
 1c 2b 3a 4a 5b 6b 7b 8q 9a 10b 11c 12a 13a 14a 15b 16a 17b 
 1b 2a 3c 4a 5a 6b 7a 8o 9b 10b 11d 12a 13b 14a 15b 16a 17b 
 1b 2a 3c 4b 5a 6b 7a 8J 9a 10a 11a 12b 13a 14a 15c 16b 17a 
 1a 2b 3b 4a 5a 6b 7b 8x 9a 10a 11b 12a 13a 14a 15c 16a 17a 
 1b 2b 3c 4a 5a 6a 7b 8F 9b 10a 11c 12c 13b 14b 15a 16b 17a 
 1c 2a 3c 4a 5a 6b 7b 8L 9a 10b 11d 12b 13a 14a 15a 16a 17a 
 1a 2a 3c 4a 5b 6c 7b 8u 9a 10a 11b 12b 13a 14a 15a 16a 17b 
 1a 2b 3c 4b 5b 6b 7a 8y 9b 10b 11c 12b 13b 14b 15a 16b 17a 
 1a 2b 3c 4b 5a 6b 7b 8z 9a 10a 11d 12c 13b 14a 15c 16b 17a 
 1b 2a 3b 4b 5a 6a 7a 8K 9b 10b 11a 12c 13a 14b 15a 16b 17b 
 1a 2a 3c 4b 5a 6c 7b 8a 9b 10a 11c 12b 13a 14b 15a 16b 17a 
 1c 2a 3a 4a 5b 6a 7a 8b 9a 10a 11c 12c 13a 14a 15b 16a 17b 
 1a 2b 3a 4a 5b 6c 7b 8c 9a 10b 11b 12b 13b 14a 15b 16b 17a 
 1a 2b 3c 4a 5b 6c 7b 8d 9a 10a 11b 12a 13a 14b 15a 16b 17b 
 1c 2a 3b 4b 5b 6c 7a 8e 9b 10a 11c 12a 13b 14a 15c 16b 17a 
 1a 2a 3a 4b 5b 6b 7a 8e 9b 10b 11b 12a 13a 14a 15c 16a 17b 
 1b 2b 3b 4b 5b 6b 7b 8f 9b 10a 11b 12b 13b 14b 15b 16b 17a 
 1c 2b 3b 4b 5a 6a 7b 8g 9a 10b 11b 12b 13b 14b 15b 16a 17b 
 1a 2b 3b 4a 5a 6c 7a 8g 9b 10a 11d 12c 13a 14a 15a 16b 17b 
 1c 2b 3c 4b 5a 6a 7b 8h 9a 10a 11d 12c 13a 14b 15c 16a 17a 
 1a 2b 3b 4a 5b 6b 7b 8i 9b 10b 11b 12b 13b 14a 15c 16a 17b 
 1b 2a 3c 4a 5b 6a 7a 8j 9b 10a 11a 12a 13a 14a 15c 16b 17a 
 1a 2b 3c 4a 5a 6b 7b 8k 9b 10a 11b 12a 13a 14b 15b 16a 17a 
 1b 2a 3c 4a 5b 6b 7a 8l 9a 10a 11b 12c 13a 14a 15a 16a 17a 
 1a 2b 3b 4a 5a 6c 7b 8m 9a 10a 11d 12c 13b 14a 15b 16b 17a 
 1b 2a 3b 4b 5a 6c 7a 8A 9b 10b 11b 12b 13a 14a 15b 16a 17a 
 1b 2b 3a 4b 5a 6c 7b 8B 9b 10a 11d 12b 13b 14a 15a 16b 17a 
 1a 2a 3c 4b 5b 6b 7b 8E 9b 10a 11a 12c 13a 14a 15a 16a 17b 
 1b 2b 3c 4a 5a 6a 7a 8H 9b 10b 11d 12c 13b 14a 15c 16b 17a 
 1b 2a 3c 4a 5b 6b 7b 8I 9a 10a 11d 12c 13b 14b 15c 16a 17a 
 1a 2b 3a 4d 5b 6b 7b 8b 9b 10a 11b 12b 13a 14d 15a 16a 17c 18b 19a 20b 21b 22a 23c 24a 25b 26c 27a 28c 
 1b 2c 3b 4a 5a 6a 7a 8a 9a 10b 11a 12a 13b 14a 15c 16b 17b 18a 19b 20a 21a 22b 23b 24b 25a 26d 27b 28b 
 1a 2a 3a 4c 5c 6b 7c 8a 9a 10c 11a 12a 13b 14c 15d 16c 17a 18b 19a 20b 21c 22c 23a 24b 25b 26a 27b 28a 
 1b 2a 3b 4b 5b 6a 7c 8b 9b 10c 11b 12b 13a 14b 15b 16c 17a 18a 19b 20a 21c 22c 23a 24a 25a 26b 27a 28b 
 1b 2b 3b 4b 5c 6a 7b 8a 9a 10a 11a 12a 13b 14b 15d 16a 17c 18a 19b 20a 21b 22a 23c 24b 25a 26a 27b 28c 
 1a 2c 3a 4a 5c 6b 7a 8b 9b 10b 11b 12b 13a 14c 15b 16b 17b 18b 19a 20b 21a 22b 23b 24a 25b 26b 27a 28a 
 1a 2a 3b 4c 5a 6b 7b 8b 9b 10c 11b 12b 13a 14a 15c 16a 17a 18b 19a 20a 21b 22a 23c 24a 25a 26d 27b 28a 
 1b 2b 3b 4d 5a 6a 7a 8a 9b 10b 11a 12a 13b 14d 15a 16c 17b 18a 19b 20b 21c 22c 23a 24b 25b 26c 27a 28a 
 1b 2c 3a 4c 5b 6a 7c 8a 9a 10c 11a 12a 13a 14d 15a 16b 17a 18b 19b 20a 21a 22b 23b 24a 25a 26c 27b 28c 
 1a 2b 3a 4b 5b 6b 7c 8b 9a 10a 11b 12b 13b 14a 15c 16c 17c 18a 19a 20b 21a 22c 23b 24b 25b 26d 27a 28b 
 1b 2c 3a 4d 5a 6a 7b 8a 9a 10a 11a 12a 13b 14c 15b 16b 17c 18a 19a 20a 21c 22a 23a 24b 25a 26b 27b 28c 
 1a 2a 3a 4a 5b 6b 7a 8b 9b 10b 11b 12b 13a 14b 15d 16a 17b 18b 19b 20a 21a 22b 23c 24a 25b 26a 27a 28b 
 1b 2c 3b 4a 5a 6b 7c 8b 9b 10b 11a 12b 13b 14c 15b 16a 17b 18b 19b 20b 21b 22c 23c 24a 25a 26a 27a 28c 
 1a 2a 3b 4d 5c 6a 7b 8b 9b 10a 11b 12a 13a 14b 15c 16b 17a 18b 19a 20b 21b 22b 23b 24b 25b 26c 27b 28b 
 1b 2a 3a 4a 5c 6b 7a 8a 9b 10c 11b 12b 13a 14a 15a 16c 17c 18b 19a 20a 21c 22b 23a 24a 25a 26d 27b 28c 
 1b 2b 3a 4b 5a 6b 7a 8b 9a 10b 11b 12b 13b 14c 15a 16b 17a 18b 19b 20a 21b 22a 23c 24a 25a 26b 27a 28b 
 1a 2c 3b 4c 5a 6b 7b 8a 9b 10a 11b 12a 13b 14b 15d 16c 17b 18a 19b 20b 21a 22a 23b 24b 25b 26d 27a 28a 
 1b 2a 3a 4c 5c 6a 7b 8a 9a 10b 11b 12b 13a 14d 15c 16a 17c 18a 19a 20a 21c 22c 23a 24b 25a 26b 27a 28b 
 1b 2b 3a 4a 5b 6b 7b 8b 9b 10a 11b 12b 13b 14d 15b 16a 17c 18a 19b 20a 21c 22b 23b 24a 25a 26a 27b 28a 
 1b 2b 3b 4d 5b 6a 7c 8a 9b 10c 11a 12b 13b 14a 15d 16b 17b 18a 19b 20a 21a 22c 23a 24a 25b 26a 27b 28b 
 1a 2c 3b 4b 5b 6a 7a 8a 9b 10a 11a 12b 13a 14a 15b 16c 17b 18a 19b 20a 21b 22b 23a 24b 25a 26c 27a 28a 
 1a 2a 3b 4a 5b 6b 7c 8b 9b 10b 11a 12b 13b 14c 15c 16c 17a 18a 19a 20b 21c 22a 23c 24b 25b 26c 27a 28c 
 1b 2b 3b 4c 5b 6a 7a 8b 9a 10b 11a 12a 13b 14c 15b 16a 17a 18b 19b 20a 21c 22c 23b 24b 25b 26d 27b 28b 
 1a 2c 3b 4b 5a 6a 7c 8a 9b 10a 11a 12b 13b 14d 15d 16a 17c 18b 19a 20b 21b 22a 23b 24a 25a 26b 27b 28c 
 1a 2b 3b 4d 5b 6a 7a 8a 9a 10c 11b 12a 13b 14b 15a 16c 17c 18b 19b 20b 21a 22a 23b 24b 25b 26d 27a 28c 
 1a 2a 3b 4a 5c 6b 7a 8a 9a 10c 11b 12b 13a 14b 15c 16a 17b 18a 19b 20b 21a 22a 23b 24a 25a 26a 27b 28b 
 1a 2c 3b 4b 5a 6a 7c 8a 9a 10a 11a 12a 13a 14a 15d 16c 17b 18b 19b 20a 21b 22c 23a 24b 25b 26b 27a 28a 
 1a 2c 3b 4b 5b 6a 7a 8a 9b 10b 11a 12a 13b 14d 15b 16b 17b 18a 19a 20a 21a 22b 23a 24a 25b 26d 27a 28c 
 1b 2b 3a 4d 5b 6a 7a 8a 9a 10b 11b 12a 13a 14a 15a 16a 17a 18a 19a 20b 21a 22c 23b 24a 25b 26a 27a 28c 
 1a 2b 3a 4c 5b 6a 7a 8b 9a 10b 11b 12b 13b 14b 15d 16a 17c 18b 19a 20a 21b 22b 23b 24a 25b 26c 27a 28a 
